python_files/Case Files/HVDCcase2470bus.m
function mpc = HVDCcase2470bus
%HVDCCASE2470BUS

%% MATPOWER Case Format : Version 2
mpc.version = '2';

%%-----  Power Flow Data  -----%%
%% system MVA base
mpc.baseMVA = 100;

%% bus data
%	bus_i	type	Pd	Qd	Gs	Bs	area	Vm	Va	baseKV	zone	Vmax	Vmin	lam_P	lam_Q	mu_Vmax	mu_Vmin
mpc.bus = [
	10012	1	0	0	172.84	-36.3	1	1.0364937	-36.266558	345	1	1.1	0.9	20.0400	0.2200	0.0000	0.0000;
	10019	1	0	0	150.66	13.11	1	1.0404744	-40.860647	345	1	1.1	0.9	20.3900	0.2300	0.0000	0.0000;
	10023	1	0	0	189.01	-81.46	1	1.0336605	-37.288175	345	1	1.1	0.9	20.1200	0.2300	0.0000	0.0000;
	10057	1	0	0	167.36	-43.66	1	1.0304996	-36.310977	345	1	1.1	0.9	20.0700	0.1700	0.0000	0.0000;
	10059	1	0	0	0	0	1	1.0313503	-36.20461	345	1	1.1	0.9	20.0600	0.1700	0.0000	0.0000;
	10078	1	0	0	188.04	-13.41	1	1.0341	-38.294317	345	1	1.1	0.9	20.2500	0.2400	0.0000	0.0000;
	10117	1	0	0	185.06	1.65	1	1.0371356	-33.678548	345	1	1.1	0.9	19.9100	0.1100	0.0000	0.0000;
	10127	1	0	0	354.66	-219.25	1	1.0191845	-38.937144	345	1	1.1	0.9	20.2800	0.2500	0.0000	0.0000;
	10192	1	0	0	147.17	33.44	1	1.0068258	-36.322807	345	1	1.1	0.9	20.0400	0.2000	0.0000	0.0000;
	10196	1	0	0	188.88	-97.83	1	1.0367489	-36.093119	345	1	1.1	0.9	20.0600	0.1900	0.0000	0.0000;
	10198	1	55.17	29.09	0	0	1	1.036304	-36.119917	345	1	1.1	0.9	20.0600	0.1900	0.0000	0.0000;
	10275	1	0	0	674.47	38.78	1	1.0175323	-37.257446	345	1	1.1	0.9	20.1900	0.2400	0.0000	0.0000;
	10330	1	0	0	642	-441.7	1	1.0064684	-38.441491	345	1	1.1	0.9	20.2800	0.2700	0.0000	0.0000;
	10332	1	52.71	12.35	0	0	1	1.0061954	-38.473433	345	1	1.1	0.9	20.2900	0.2700	0.0000	0.0000;
	10333	1	0	0	240.81	10	1	1.0108799	-37.857669	345	1	1.1	0.9	20.2300	0.2500	0.0000	0.0000;
	10346	1	0	0	178.71	22.14	1	1.0141261	-38.242761	345	1	1.1	0.9	20.2800	0.2600	0.0000	0.0000;
	10353	1	0	0	0	0	1	1.0143553	-38.126336	345	1	1.1	0.9	20.2600	0.2600	0.0000	0.0000;
	10369	1	0	0	316.25	13.84	1	1.0214464	-36.513009	345	1	1.1	0.9	20.1400	0.2200	0.0000	0.0000;
	10414	1	0	0	247.24	-34.38	1	1.0269164	-37.460907	345	1	1.1	0.9	20.1900	0.2300	0.0000	0.0000;
	10427	1	0	0	194.71	-131.92	1	1.0130363	-37.437854	345	1	1.1	0.9	20.2000	0.2500	0.0000	0.0000;
	10429	1	62.16	12.77	0	0	1	1.0127299	-37.473418	345	1	1.1	0.9	20.2100	0.2500	0.0000	0.0000;
	10432	1	0	0	214.51	-49.19	1	1.0327868	-36.218532	345	1	1.1	0.9	20.0800	0.2100	0.0000	0.0000;
	10459	1	0	0	1246.2	-397.08	1	1.0090705	-37.651125	345	1	1.1	0.9	20.2000	0.2500	0.0000	0.0000;
	10462	1	0	0	786.84	-41.12	1	1.0226476	-38.070064	345	1	1.1	0.9	20.2100	0.2400	0.0000	0.0000;
	10468	1	0	0	212.87	-73.45	1	1.0132172	-37.694536	345	1	1.1	0.9	20.2200	0.2500	0.0000	0.0000;
	10534	1	0	0	168.07	-84.16	1	1.0287509	-25.98278	345	1	1.1	0.9	19.6300	0.0500	0.0000	0.0000;
	10586	1	0	0	110.3	-20.24	1	1.0336716	-24.192391	345	1	1.1	0.9	19.5200	0.0200	0.0000	0.0000;
	10588	1	48.43	13.27	0	0	1	1.0334152	-24.21719	345	1	1.1	0.9	19.5200	0.0200	0.0000	0.0000;
	10661	1	0	0	126.16	-235.12	1	1.0025228	-20.062749	345	1	1.1	0.9	19.3400	0.0700	0.0000	0.0000;
	10663	1	0	0	0	0	1	1.0043564	-19.922555	345	1	1.1	0.9	19.3100	0.0700	0.0000	0.0000;
	10664	1	0	0	0	0	1	1.0025228	-20.062749	345	1	1.1	0.9	19.3400	0.0700	0.0000	0.0000;
	10680	1	0	0	0	0	1	1.0430254	-23.29166	765	1	1.1	0.9	19.5000	0.0000	0.0000	0.0000;
	10681	1	0	0	105.31	-12.76	1	1.0400483	-24.636337	345	1	1.1	0.9	19.5200	0.0200	0.0000	0.0000;
	10684	2	0	0	0	0	1	1.0171757	-22.845451	20	1	1.1	0.9	19.4900	0.0000	0.0000	0.0000;
	10685	2	0	0	0	0	1	1.0172325	-22.558254	13.8	1	1.1	0.9	19.4900	0.0000	0.0000	0.0000;
	10687	2	0	0	0	0	1	1.0158341	-22.80989	13.2	1	1.1	0.9	19.4900	0.0000	0.0000	0.0000;
	10688	2	0	0	0	0	1	1.0177573	-22.660702	13.8	1	1.1	0.9	19.4900	0.0000	0.0000	0.0000;
	10689	2	0	0	0	0	1	0.9988865	-24.389994	24	1	1.1	0.9	19.5200	0.0100	0.0000	0.0000;
	10691	2	0	0	13.82	-43.97	1	0.9596434	-17.049904	13.8	1	1.1	0.9	19.2100	-0.0100	0.0000	0.0000;
	10694	2	0	0	12.07	-1.15	1	1.048344	-33.58202	13.2	1	1.1	0.9	19.6800	0.0000	0.0000	0.0000;
	10695	2	0	0	12.21	-1.16	1	1.048378	-33.331121	13.2	1	1.1	0.9	19.6800	0.0000	0.0000	0.0000;
	10697	1	0	0	65.11	7.98	1	1.0386501	-27.674657	345	1	1.1	0.9	19.6400	0.1000	0.0000	0.0000;
	10699	2	0	0	0	0	1	1.0012109	-25.79817	13.8	1	1.1	0.9	19.6100	0.1100	0.0000	0.0000;
	10700	1	1.19	0.45	0	0	1	1.038643	-27.675236	345	1	1.1	0.9	19.6400	0.1000	0.0000	0.0000;
	10701	1	0	0	0	0	1	1.0388791	-27.657955	345	1	1.1	0.9	19.6400	0.1000	0.0000	0.0000;
	10703	2	0	0	36.69	-5.84	1	1.0605482	-21.413233	18	1	1.1	0.9	19.2900	0.0000	0.0000	0.0000;
	10707	1	0	0	0	-324	1	1.0288222	-23.291251	765	1	1.1	0.9	19.4900	0.1300	0.0000	0.0000;
	10708	1	0	0	107.18	-6.6	1	1.0376669	-25.824044	345	1	1.1	0.9	19.5300	0.1300	0.0000	0.0000;
	10710	2	0	0	0	0	1	1.0088052	-22.253682	13.8	1	1.1	0.9	19.4800	0.1300	0.0000	0.0000;
	10711	2	0	0	0	0	1	1.0091827	-22.489475	13.8	1	1.1	0.9	19.4800	0.1300	0.0000	0.0000;
	10712	2	0	0	0	0	1	1.0089255	-22.528374	13.8	1	1.1	0.9	19.4800	0.1300	0.0000	0.0000;
	10713	2	0	0	0	0	1	1.0092516	-22.569646	18	1	1.1	0.9	19.4800	0.1300	0.0000	0.0000;
	10715	2	0	0	0	0	1	1.0158102	-22.946063	13.8	1	1.1	0.9	19.4900	0.1300	0.0000	0.0000;
	10716	1	0.17	0.02	0	0	1	1.0332087	-23.574708	765	1	1.1	0.9	19.5300	0.0800	0.0000	0.0000;
	10717	1	0	0	0	-1538	1	1.0333209	-23.891541	765	1	1.1	0.9	19.5300	0.0800	0.0000	0.0000;
	10718	1	0	0	80.03	-14.74	1	1.0368818	-25.453853	345	1	1.1	0.9	19.5300	0.1100	0.0000	0.0000;
	10723	2	0	0	0	0	1	0.9996771	-23.466852	20	1	1.1	0.9	19.5300	0.0800	0.0000	0.0000;
	10724	2	0	0	0	0	1	1.0007571	-23.191137	18	1	1.1	0.9	19.5200	0.0800	0.0000	0.0000;
	10725	2	0	0	0	0	1	1.0015432	-23.338844	13.8	1	1.1	0.9	19.5200	0.0700	0.0000	0.0000;
	10726	2	0	0	0	0	1	1.001847	-23.307929	18	1	1.1	0.9	19.5200	0.0800	0.0000	0.0000;
	10728	2	0	0	0	0	1	1.0175929	-35.931096	345	1	1.1	0.9	20.1100	0.2300	0.0000	0.0000;
	10729	2	0	0	320.33	1.23	1	1.0433022	-39.305288	138	1	1.1	0.9	20.2400	0.2200	0.0000	0.0000;
	10730	1	0	0	0	0	1	1.0328864	-38.575689	345	1	1.1	0.9	20.2200	0.2400	0.0000	0.0000;
	10731	2	0	0	180.73	40.59	1	1.0364434	-40.344509	138	1	1.1	0.9	20.2300	0.2700	0.0000	0.0000;
	10734	1	0	0	0	440	1	1.0279809	-32.614046	765	1	1.1	0.9	19.9200	0.1600	0.0000	0.0000;
	10735	1	0	0	242.96	-306.66	1	1.0447148	-35.307788	345	1	1.1	0.9	20.0000	0.1800	0.0000	0.0000;
	10737	2	0	0	0	0	1	1.0342557	-31.944758	24	1	1.1	0.9	19.9100	0.1600	0.0000	0.0000;
	10738	2	0	0	0	0	1	1.034383	-31.928814	13.8	1	1.1	0.9	19.9100	0.1600	0.0000	0.0000;
	10739	1	0	0	0	0	1	1.0295612	-31.285241	765	1	1.1	0.9	19.7900	0.1600	0.0000	0.0000;
	10740	1	0	0	28.09	3.03	1	1.02903	-33.796435	345	1	1.1	0.9	19.8300	0.1500	0.0000	0.0000;
	10742	2	0	0	0	0	1	1.0293667	-30.991666	20	1	1.1	0.9	19.7800	0.1600	0.0000	0.0000;
	10744	2	0	0	0	0	1	1.0292333	-30.924894	13.8	1	1.1	0.9	19.7800	0.1600	0.0000	0.0000;
	10746	2	0	0	27	2.3	1	1.0161033	-19.600861	18	1	1.1	0.9	19.3500	0.1000	0.0000	0.0000;
	10747	1	0	0	0	0	1	1.0430331	-20.534333	765	1	1.1	0.9	19.3900	0.0500	0.0000	0.0000;
	10748	1	0	0	53.35	-1.04	1	1.0430757	-21.896945	345	1	1.1	0.9	19.3800	0.0700	0.0000	0.0000;
	10750	2	0	0	0	0	1	1.041582	-18.967941	13.8	1	1.1	0.9	19.3800	0.0500	0.0000	0.0000;
	10752	2	0	0	0	0	1	1.0418008	-19.50634	13.8	1	1.1	0.9	19.3800	0.0500	0.0000	0.0000;
	10754	2	0	0	0	0	1	1.0413857	-19.099486	13.8	1	1.1	0.9	19.3800	0.0500	0.0000	0.0000;
	10755	2	0	0	0	0	1	1.0409671	-18.708626	13.8	1	1.1	0.9	19.3700	0.0500	0.0000	0.0000;
	10756	1	0	0	0	-109	1	1.0390358	-33.535814	345	1	1.1	0.9	19.7900	0.0600	0.0000	0.0000;
	10757	2	10.95	1.99	98.69	3.62	1	1.0371641	-34.010817	138	1	1.1	0.9	19.7300	0.0700	0.0000	0.0000;
	10758	2	0	0	106.36	-4.42	1	1.0309255	-31.772377	345	1	1.1	0.9	19.7900	0.1900	0.0000	0.0000;
	10760	2	0	0	158.16	21.14	1	0.9980512	-36.397248	345	1	1.1	0.9	20.0700	0.2200	0.0000	0.0000;
	10762	1	0	0	0	0	1	0.9984194	-36.260167	345	1	1.1	0.9	20.0500	0.2200	0.0000	0.0000;
	10763	1	0	0	0	0	1	0.9980512	-36.397248	345	1	1.1	0.9	20.0700	0.2200	0.0000	0.0000;
	10764	1	0	0	0	0	1	0.9980512	-36.397248	345	1	1.1	0.9	20.0700	0.2200	0.0000	0.0000;
	10765	1	0	0	0	0	1	0.9980512	-36.397248	345	1	1.1	0.9	20.0700	0.2200	0.0000	0.0000;
	10766	1	0	0	22.4	-108.32	1	1.035849	-17.152401	345	1	1.1	0.9	19.0900	0.0400	0.0000	0.0000;
	10768	2	0	0	0	0	1	1.0283014	-14.663515	13.8	1	1.1	0.9	19.0600	0.0300	0.0000	0.0000;
	10769	1	0	0	1.75	1.52	1	1.0316484	-30.220836	345	1	1.1	0.9	19.6800	0.1700	0.0000	0.0000;
	10771	2	0	0	0	0	1	1.0383465	-29.27665	13.8	1	1.1	0.9	19.6600	0.1600	0.0000	0.0000;
	10772	2	0	0	0	0	1	1.0393211	-29.35823	13.8	1	1.1	0.9	19.6600	0.1600	0.0000	0.0000;
	10774	2	0	0	0	0	1	1.0372321	-29.598651	13.8	1	1.1	0.9	19.6700	0.1600	0.0000	0.0000;
	10776	2	0	0	25.51	-4.56	1	1.0064419	-39.242915	18	1	1.1	0.9	19.7600	0.0600	0.0000	0.0000;
	10778	2	0	0	234.5	63.21	1	1.0247731	-24.810911	138	1	1.1	0.9	19.5900	0.0300	0.0000	0.0000;
	10782	2	0	0	5.63	-0.78	1	1.0147722	-34.024812	13.8	1	1.1	0.9	19.8500	0.1800	0.0000	0.0000;
	10783	2	0	0	2.45	-0.29	1	1.0140277	-32.783438	18	1	1.1	0.9	19.8200	0.1900	0.0000	0.0000;
	10784	2	0	0	0	0	1	1.0324137	-40.999595	345	1	1.1	0.9	19.7000	0.0900	0.0000	0.0000;
	10785	2	0	0	305.96	-2.45	1	1.0306741	-41.287882	138	1	1.1	0.9	19.8400	0.1100	0.0000	0.0000;
	10786	1	0	0	0	0	1	1.0316697	-40.818995	345	1	1.1	0.9	19.6800	0.1000	0.0000	0.0000;
	10787	1	0	0	0	0	1	1.0324137	-40.999595	345	1	1.1	0.9	19.7000	0.0900	0.0000	0.0000;
	10788	1	0	0	0	0	1	1.0330113	-29.201978	345	1	1.1	0.9	19.7200	0.0900	0.0000	0.0000;
	10789	1	0	0	86.5	-90.27	1	1.011534	-19.130162	345	1	1.1	0.9	19.2400	0.0900	0.0000	0.0000;
	10791	2	0	0	0	0	1	0.9952228	-17.895634	20	1	1.1	0.9	19.2300	0.0900	0.0000	0.0000;
	10792	1	13.86	3.24	0	0	1	1.0114699	-19.138002	345	1	1.1	0.9	19.2400	0.0900	0.0000	0.0000;
	10793	1	0	0	0	0	1	1.0124846	-19.09206	345	1	1.1	0.9	19.2400	0.0900	0.0000	0.0000;
	10794	1	0	0	92.86	11.13	1	1.0429951	-32.411433	345	1	1.1	0.9	19.8100	0.0100	0.0000	0.0000;
	10797	2	0	0	0	0	1	1.0438129	-30.692198	13.8	1	1.1	0.9	19.7900	0.0000	0.0000	0.0000;
	10798	2	0	0	23.3	0.09	1	1.02704	-25.70956	18	1	1.1	0.9	19.5900	0.1000	0.0000	0.0000;
	10799	1	9.92	1.97	0	0	1	1.0428873	-32.376856	345	1	1.1	0.9	19.8100	0.0400	0.0000	0.0000;
	10800	2	0	0	40.7	22.3	1	1.04	-26.733036	138	1	1.1	0.9	19.1900	0.1400	0.0000	0.0000;
	10802	2	0	0	36.72	6.44	1	1.0402659	-39.10037	13.8	1	1.1	0.9	20.2700	0.3200	0.0000	0.0000;
	10803	2	0	0	37.01	6.45	1	1.0402659	-38.871916	13.8	1	1.1	0.9	20.2600	0.3200	0.0000	0.0000;
	10806	2	0	0	37.88	1.02	1	1.0227019	-24.109636	13.8	1	1.1	0.9	19.3000	0.2500	0.0000	0.0000;
	10807	2	0	0	24.28	0.86	1	1.0266702	-28.036527	13.8	1	1.1	0.9	19.3800	0.2400	0.0000	0.0000;
	10808	1	0	0	0	-254	1	1.0402185	-21.202352	765	1	1.1	0.9	19.3500	0.0100	0.0000	0.0000;
	10809	1	0	0	112.44	-10.66	1	1.0366419	-21.499109	345	1	1.1	0.9	19.3600	0.0100	0.0000	0.0000;
	10811	2	0	0	0	0	1	1.0770394	-15.018156	13.8	1	1.1	0.9	19.3100	0.0000	0.0000	0.0000;
	10812	1	0	0	0	0	1	1.0378272	-21.854807	765	1	1.1	0.9	19.4500	0.0100	0.0000	0.0000;
	10813	2	0	0	88.07	-3.21	1	1.0191937	-35.016661	345	1	1.1	0.9	19.9300	0.1700	0.0000	0.0000;
	10817	2	0	0	61.6	-8.05	1	1.0467317	-19.287924	345	1	1.1	0.9	19.3100	-0.0100	0.0000	0.0000;
	10819	1	2.9	0.43	0	0	1	1.0469426	-19.274407	345	1	1.1	0.9	19.3000	-0.0100	0.0000	0.0000;
	10824	1	0	0	-5.7	-474.57	1	1.02312	-16.773763	765	1	1.1	0.9	19.1800	0.0900	0.0000	0.0000;
	10825	1	0	0	123.9	-37.14	1	1.025494	-17.528959	345	1	1.1	0.9	19.1500	0.0700	0.0000	0.0000;
	10829	2	0	0	0	0	1	1.0231985	-16.23082	24	1	1.1	0.9	19.1700	0.0900	0.0000	0.0000;
	10830	2	0	0	0	0	1	1.0232166	-16.129938	13.8	1	1.1	0.9	19.1700	0.0900	0.0000	0.0000;
	10831	2	0	0	0	0	1	1.023217	-16.139485	20	1	1.1	0.9	19.1700	0.0900	0.0000	0.0000;
	10832	2	0	0	0	0	1	1.0231959	-16.306011	18	1	1.1	0.9	19.1700	0.0900	0.0000	0.0000;
	10833	2	0	0	0	0	1	1.023219	-16.270791	13.8	1	1.1	0.9	19.1700	0.0900	0.0000	0.0000;
	10834	2	0	0	0	0	1	1.023191	-16.401939	13.8	1	1.1	0.9	19.1800	0.0900	0.0000	0.0000;
	10835	1	0	0	0	0	1	1.0275818	-17.139212	765	1	1.1	0.9	19.2200	0.0400	0.0000	0.0000;
	10836	2	0	0	867.73	35.36	1	1.0331437	-39.696237	138	1	1.1	0.9	20.1100	0.2400	0.0000	0.0000;
	10838	2	0	0	212.16	-37.52	1	1.0342488	-36.971519	345	1	1.1	0.9	20.1400	0.2100	0.0000	0.0000;
	10842	2	0	0	0	0	1	1.0370715	-34.763967	345	1	1.1	0.9	19.8600	0.1100	0.0000	0.0000;
	10843	2	0	0	212.75	-16.68	1	1.0336056	-37.385282	138	1	1.1	0.9	19.9100	0.1700	0.0000	0.0000;
	10844	1	0	0	0	0	1	1.031	-19.909415	765	1	1.1	0.9	19.3200	0.0500	0.0000	0.0000;
	10845	1	0	0	77.59	-31.1	1	1.0325207	-20.346064	345	1	1.1	0.9	19.3200	0.0400	0.0000	0.0000;
	10847	2	0	0	0	0	1	1.0305132	-19.255367	13.8	1	1.1	0.9	19.3100	0.0500	0.0000	0.0000;
	10848	2	0	0	0	0	1	1.0305096	-19.404583	13.8	1	1.1	0.9	19.3200	0.0500	0.0000	0.0000;
	10849	2	0	0	0	0	1	1.0305181	-19.390655	18	1	1.1	0.9	19.3200	0.0500	0.0000	0.0000;
	10850	2	0	0	0	0	1	1.0303172	-19.15341	13.8	1	1.1	0.9	19.3100	0.0500	0.0000	0.0000;
	10851	2	0	0	0	0	1	1.0305334	-19.407064	13.8	1	1.1	0.9	19.3200	0.0500	0.0000	0.0000;
	10852	2	0	0	0	0	1	1.0305752	-19.329065	13.8	1	1.1	0.9	19.3100	0.0500	0.0000	0.0000;
	10854	1	0	0	0	0	1	1.0331062	-20.340624	345	1	1.1	0.9	19.3200	0.0300	0.0000	0.0000;
	10855	1	0	0	0	0	1	1.0302268	-20.175271	765	1	1.1	0.9	19.3600	0.0500	0.0000	0.0000;
	10856	1	0	0	0	0	1	1.0394619	-31.637933	765	1	1.1	0.9	19.8700	0.1500	0.0000	0.0000;
	10857	1	0	0	127.49	-34.27	1	1.039182	-34.025715	345	1	1.1	0.9	19.8900	0.1100	0.0000	0.0000;
	10860	2	0	0	0	0	1	1.0340104	-30.537002	13.8	1	1.1	0.9	19.8600	0.1500	0.0000	0.0000;
	10861	1	0	0	0	0	1	1.0410763	-31.530124	765	1	1.1	0.9	19.8500	0.1400	0.0000	0.0000;
	10862	1	0	0	39.49	-0.62	1	1.0408671	-33.730817	345	1	1.1	0.9	19.8000	0.0700	0.0000	0.0000;
	10864	2	0	0	0	0	1	1.0055444	-32.265851	18	1	1.1	0.9	19.7800	0.0600	0.0000	0.0000;
	10865	2	0	0	0	0	1	1.0058898	-31.442723	13.8	1	1.1	0.9	19.7600	0.0600	0.0000	0.0000;
	10867	2	0	0	28.71	-13.04	1	0.9903327	-33.531432	18	1	1.1	0.9	20.2500	0.3500	0.0000	0.0000;
	10869	2	0	0	17	-5.73	1	1.0020723	-24.515085	22	1	1.1	0.9	19.5800	0.0600	0.0000	0.0000;
	10870	1	0	0	185.7	-59.14	1	1.0151207	-20.683645	345	1	1.1	0.9	19.4100	0.0500	0.0000	0.0000;
	10872	2	0	0	0	0	1	1.0225594	-19.888461	13.8	1	1.1	0.9	19.4000	0.0500	0.0000	0.0000;
	10873	2	0	0	61.66	11.56	1	1.042191	-24.924822	138	1	1.1	0.9	19.5100	0.1000	0.0000	0.0000;
	10874	1	0	0	0	0	1	1.0337274	-17.472114	765	1	1.1	0.9	19.2200	0.0400	0.0000	0.0000;
	10875	1	0	0	24.71	10.38	1	1.0358997	-18.23946	345	1	1.1	0.9	19.2100	0.0400	0.0000	0.0000;
	10879	2	0	0	0	0	1	1.0332423	-17.154681	13.8	1	1.1	0.9	19.2200	0.0400	0.0000	0.0000;
	10880	2	0	0	0	0	1	1.0334271	-17.140321	18	1	1.1	0.9	19.2200	0.0400	0.0000	0.0000;
	10881	2	0	0	0	0	1	1.033162	-17.085327	13.8	1	1.1	0.9	19.2200	0.0400	0.0000	0.0000;
	10884	2	0	0	0	0	1	1.0331685	-16.849873	18	1	1.1	0.9	19.2200	0.0400	0.0000	0.0000;
	10885	1	0	0	0	0	1	1.0333328	-17.608667	765	1	1.1	0.9	19.2500	0.0400	0.0000	0.0000;
	10886	1	0	0	0	0	1	1.0337274	-17.472114	765	1	1.1	0.9	19.2200	0.0400	0.0000	0.0000;
	10887	1	0	0	33.26	-9.66	1	1.0327042	-39.72243	345	1	1.1	0.9	19.6500	0.0100	0.0000	0.0000;
	10889	2	0	0	0	0	1	1.0387436	-38.335834	18	1	1.1	0.9	19.6300	0.0000	0.0000	0.0000;
	10891	1	0	0	0	0	1	1.0323111	-39.741925	345	1	1.1	0.9	19.6500	0.0200	0.0000	0.0000;
	10892	1	0	0	0	0	1	1.0255682	-29.100479	765	1	1.1	0.9	19.7200	0.0900	0.0000	0.0000;
	10893	1	0	0	141.54	-120.57	1	1.0442134	-31.727447	345	1	1.1	0.9	19.7800	0.0800	0.0000	0.0000;
	10895	2	0	0	0	0	1	1.0244841	-28.51444	13.2	1	1.1	0.9	19.7100	0.0900	0.0000	0.0000;
	10896	2	0	0	0	0	1	1.0244057	-28.474289	13.8	1	1.1	0.9	19.7100	0.0900	0.0000	0.0000;
	10897	2	0	0	0	0	1	1.0248227	-28.694065	18	1	1.1	0.9	19.7100	0.0900	0.0000	0.0000;
	10898	2	0	0	0	0	1	1.0246865	-28.612079	18	1	1.1	0.9	19.7100	0.0900	0.0000	0.0000;
	10899	1	0	0	28.52	3.59	1	1.038976	-22.99311	345	1	1.1	0.9	19.4500	0.0100	0.0000	0.0000;
	10901	2	0	0	6.51	0.86	1	1.0415927	-17.495463	13.8	1	1.1	0.9	19.3500	0.0100	0.0000	0.0000;
	10904	2	0	0	2.09	5.93	1	1.0489372	-21.750808	13.8	1	1.1	0.9	19.2400	0.0000	0.0000	0.0000;
	10905	1	0	0	0	0	1	1.0412681	-23.436504	765	1	1.1	0.9	19.5000	0.0300	0.0000	0.0000;
	10906	1	0	0	52.03	-1.93	1	1.0421181	-24.433223	345	1	1.1	0.9	19.4900	0.0200	0.0000	0.0000;
	10908	2	0	0	0	0	1	1.0341443	-22.872498	18	1	1.1	0.9	19.5000	0.0300	0.0000	0.0000;
	10910	2	0	0	0	0	1	1.0279814	-23.113622	18	1	1.1	0.9	19.5000	0.0300	0.0000	0.0000;
	10912	2	0	0	0	0	1	1.0278912	-22.973954	13.8	1	1.1	0.9	19.5000	0.0300	0.0000	0.0000;
	10914	2	0	0	0	0	1	1.0283473	-23.366708	18	1	1.1	0.9	19.5000	0.0300	0.0000	0.0000;
	10915	1	0	0	0	0	1	1.0419342	-24.567229	345	1	1.1	0.9	19.5100	0.0100	0.0000	0.0000;
	10916	1	0	0	0	-666	1	1.0262218	-26.752581	765	1	1.1	0.9	19.5900	0.1200	0.0000	0.0000;
	10917	1	0	0	52.93	7.06	1	1.0301431	-28.810051	345	1	1.1	0.9	19.6000	0.1600	0.0000	0.0000;
	10919	2	0	0	0	0	1	1.0319208	-25.776465	22	1	1.1	0.9	19.5800	0.1300	0.0000	0.0000;
	10921	2	0	0	0	0	1	1.0321565	-26.17919	13.8	1	1.1	0.9	19.5800	0.1300	0.0000	0.0000;
	10923	2	0	0	151.81	-18.56	1	1.0390541	-40.630319	138	1	1.1	0.9	19.7100	0.0900	0.0000	0.0000;
	10925	2	0	0	15.32	0.49	1	1.0367585	-36.10576	18	1	1.1	0.9	20.3500	0.2800	0.0000	0.0000;
	10928	1	0	0	77.21	-18.45	1	1.0439999	-33.170734	345	1	1.1	0.9	19.8000	0.0100	0.0000	0.0000;
	10930	2	0	0	0	0	1	1.0620169	-31.71514	13.8	1	1.1	0.9	19.7900	0.0000	0.0000	0.0000;
	10931	2	0	0	0	0	1	1.0517876	-31.480624	13.8	1	1.1	0.9	19.7900	0.0000	0.0000	0.0000;
	10932	2	0	0	0	0	1	1.0590834	-29.719405	13.8	1	1.1	0.9	19.7600	0.0000	0.0000	0.0000;
	10933	2	0	0	153.14	81.03	1	1.0332707	-27.938229	138	1	1.1	0.9	19.3600	0.1100	0.0000	0.0000;
	10934	2	0	0	138.52	47.73	1	1.0257898	-35.959402	138	1	1.1	0.9	19.8700	0.2200	0.0000	0.0000;
	10938	2	0	0	11.37	-0.35	1	1.0292825	-33.297765	13.8	1	1.1	0.9	19.8700	0.2500	0.0000	0.0000;
	10941	1	0	0	0	0	1	1.0340744	-18.379137	765	1	1.1	0.9	19.2800	0.0400	0.0000	0.0000;
	10942	1	0	0	71.47	0.84	1	1.0354605	-19.347576	345	1	1.1	0.9	19.2700	0.0400	0.0000	0.0000;
	10944	2	0	0	0	0	1	1.0333993	-17.608164	24	1	1.1	0.9	19.2800	0.0400	0.0000	0.0000;
...
];

%% generator data
%	bus	Pg	Qg	Qmax	Qmin	Vg	mBase	status	Pmax	Pmin	Pc1	Pc2	Qc1min	Qc1max	Qc2min	Qc2max	ramp_agc	ramp_10	ramp_30	ramp_q	apf	mu_Pmax	mu_Pmin	mu_Qmax	mu_Qmin
mpc.gen = [
	10684	85.29	61.16	61.16	61.16	1.0172	201.13	1	85.29	85.29	0	0	0	0	0	0	0	0	0	0	159.2667	0.0000	0.0000	0.0000	0.0000;
	10685	138.65	61.16	61.16	61.16	1.0172	217.36	1	138.65	138.65	0	0	0	0	0	0	0	0	0	0	159.2667	0.0000	0.0000	0.0000	0.0000;
	10687	120.63	61.16	61.16	61.16	1.0158	188.08	1	120.63	120.63	0	0	0	0	0	0	0	0	0	0	159.2667	0.0000	0.0000	0.0000	0.0000;
	10688	109.93	61.16	61.16	61.16	1.0178	201.28	1	109.93	109.93	0	0	0	0	0	0	0	0	0	0	159.2667	0.0000	0.0000	0.0000	0.0000;
	10689	9.02	4.95	4.95	4.95	0.9989	12.9	1	9.02	9.02	0	0	0	0	0	0	0	0	0	0	12.9	0.0000	0.0000	0.0000	0.0000;
	10691	59.72	21.07	21.07	21.07	0.9596	98.92	1	59.72	59.72	0	0	0	0	0	0	0	0	0	0	98.9	0.0000	0.0000	0.0000	0.0000;
	10694	23.02	4.51	13.44	-1.71	1.0483	35.08	1	23.02	23.02	0	0	0	0	0	0	0	0	0	0	35	0.0000	0.0000	0.0000	0.0000;
	10695	25.55	4.37	13.44	-1.71	1.0484	41.36	1	25.55	25.55	0	0	0	0	0	0	0	0	0	0	35	0.0000	0.0000	0.0000	0.0000;
	10699	79.42	-14.5	21.45	-14.5	1.0012	120.64	1	79.42	79.42	0	0	0	0	0	0	0	0	0	0	100.7	0.0000	0.0000	0.0000	0.0000;
	10703	136.3	18.69	29.03	-19.63	1.0605	174.64	1	136.3	136.3	0	0	0	0	0	0	0	0	0	0	136.3	0.0000	0.0000	0.0000	0.0000;
	10710	171.16	-10.61	83.17	-10.61	1.0088	238.48	1	171.16	171.16	0	0	0	0	0	0	0	0	0	0	216.6	0.0000	0.0000	0.0000	0.0000;
	10711	189.67	-10.61	83.17	-10.61	1.0092	219.83	1	189.67	189.67	0	0	0	0	0	0	0	0	0	0	216.6	0.0000	0.0000	0.0000	0.0000;
	10712	135.95	-10.61	83.17	-10.61	1.0089	219.92	1	135.95	135.95	0	0	0	0	0	0	0	0	0	0	216.6	0.0000	0.0000	0.0000	0.0000;
	10713	189.37	-10.61	83.17	-10.61	1.0093	259.93	1	189.37	189.37	0	0	0	0	0	0	0	0	0	0	216.6	0.0000	0.0000	0.0000	0.0000;
	10715	172.43	-10.61	83.17	-10.61	1.0158	279.75	1	172.43	172.43	0	0	0	0	0	0	0	0	0	0	216.6	0.0000	0.0000	0.0000	0.0000;
	10723	82.25	40.28	40.28	40.28	0.9997	152.84	1	82.25	82.25	0	0	0	0	0	0	0	0	0	0	104.9	0.0000	0.0000	0.0000	0.0000;
	10724	104.9	40.28	40.28	40.28	1.0008	115.76	1	104.9	104.9	0	0	0	0	0	0	0	0	0	0	104.9	0.0000	0.0000	0.0000	0.0000;
	10725	71.29	40.28	40.28	40.28	1.0015	116.27	1	71.29	71.29	0	0	0	0	0	0	0	0	0	0	104.9	0.0000	0.0000	0.0000	0.0000;
	10726	71.08	40.28	40.28	40.28	1.0018	106.56	1	71.08	71.08	0	0	0	0	0	0	0	0	0	0	104.9	0.0000	0.0000	0.0000	0.0000;
	10728	23.81	10.73	10.73	-1.37	1.0177	32.27	1	23.81	23.81	0	0	0	0	0	0	0	0	0	0	27.95	0.0000	0.0000	0.0000	0.0000;
	10728	0	0	10.73	-1.37	1.0177	35.8	0	27.95	6.98	0	0	0	0	0	0	0	0	0	0	27.95	0.0000	0.0000	0.0000	0.0000;
	10729	0	0	10.73	-1.37	1.0133	27.95	0	27.95	6.03	0	0	0	0	0	0	0	0	0	0	27.95	0.0000	0.0000	0.0000	0.0000;
	10729	20.46	-1.37	10.73	-1.37	1.0133	32.33	1	20.46	20.46	0	0	0	0	0	0	0	0	0	0	27.95	0.0000	0.0000	0.0000	0.0000;
	10731	0	0	6.5	-0.83	1.0172	18.62	0	16.92	5.64	0	0	0	0	0	0	0	0	0	0	16.92	0.0000	0.0000	0.0000	0.0000;
	10731	0	0	6.5	-0.83	1.0172	21.25	0	16.92	6.86	0	0	0	0	0	0	0	0	0	0	16.92	0.0000	0.0000	0.0000	0.0000;
	10731	0	0	6.5	-0.83	1.0172	16.92	0	16.92	3.04	0	0	0	0	0	0	0	0	0	0	16.92	0.0000	0.0000	0.0000	0.0000;
	10731	9.83	-0.83	6.5	-0.83	1.0172	19.89	1	9.83	9.83	0	0	0	0	0	0	0	0	0	0	16.92	0.0000	0.0000	0.0000	0.0000;
	10731	0	0	6.5	-0.83	1.0172	20.51	0	16.92	4.16	0	0	0	0	0	0	0	0	0	0	16.92	0.0000	0.0000	0.0000	0.0000;
	10737	158.25	81.01	81.01	81.01	1.0343	193.29	1	159.15	72.55	0	0	0	0	0	0	0	0	0	0	159.15	0.0000	0.0000	0.0000	0.0000;
	10738	158.25	81.01	81.01	81.01	1.0344	195.43	1	159.15	58.54	0	0	0	0	0	0	0	0	0	0	159.15	0.0000	0.0000	0.0000	0.0000;
	10742	80	-3.92	30.72	-3.92	1.0294	96.14	1	80	80	0	0	0	0	0	0	0	0	0	0	80	0.0000	0.0000	0.0000	0.0000;
	10744	64.23	-3.92	30.72	-3.92	1.0292	106.35	1	64.23	64.23	0	0	0	0	0	0	0	0	0	0	80	0.0000	0.0000	0.0000	0.0000;
	10746	66.35	-12.96	19.17	-12.96	1.0004	98.26	1	66.35	66.35	0	0	0	0	0	0	0	0	0	0	90	0.0000	0.0000	0.0000	0.0000;
	10750	409.37	-20.06	157.2	-20.06	1.0416	498.65	1	409.37	409.37	0	0	0	0	0	0	0	0	0	0	409.37	0.0000	0.0000	0.0000	0.0000;
	10752	293.05	-20.06	157.2	-20.06	1.0418	417.45	1	293.05	293.05	0	0	0	0	0	0	0	0	0	0	409.3667	0.0000	0.0000	0.0000	0.0000;
	10754	323.1	-20.06	157.2	-20.06	1.0414	487.04	1	323.1	323.1	0	0	0	0	0	0	0	0	0	0	409.3667	0.0000	0.0000	0.0000	0.0000;
	10755	333.93	-20.06	157.2	-20.06	1.041	548.59	1	333.93	333.93	0	0	0	0	0	0	0	0	0	0	409.37	0.0000	0.0000	0.0000	0.0000;
	10757	40.5	-1.98	15.55	-1.98	1.0231	45.68	1	40.5	40.5	0	0	0	0	0	0	0	0	0	0	40.5	0.0000	0.0000	0.0000	0.0000;
	10757	40.5	-1.98	15.55	-1.98	1.0231	47.33	1	40.5	40.5	0	0	0	0	0	0	0	0	0	0	40.5	0.0000	0.0000	0.0000	0.0000;
	10757	28.94	-1.98	15.55	-1.98	1.0231	57.72	1	28.94	28.94	0	0	0	0	0	0	0	0	0	0	40.5	0.0000	0.0000	0.0000	0.0000;
	10757	0	0	15.55	-1.98	1.0231	56.8	0	40.5	9.58	0	0	0	0	0	0	0	0	0	0	40.5	0.0000	0.0000	0.0000	0.0000;
	10758	0	0	21.35	-2.72	1.04	64.74	0	55.6	19.42	0	0	0	0	0	0	0	0	0	0	55.6	0.0000	0.0000	0.0000	0.0000;
	10758	55.6	21.35	21.35	21.35	1.0309	63.99	1	55.6	55.6	0	0	0	0	0	0	0	0	0	0	55.6	0.0000	0.0000	0.0000	0.0000;
	10760	0	0	0	0	1.04	69.12	0	61.5	13.06	0	0	0	0	0	0	0	0	0	0	61.5	0.0000	0.0000	0.0000	0.0000;
	10768	212.51	56.83	56.83	56.83	1.0283	301.55	1	212.51	212.51	0	0	0	0	0	0	0	0	0	0	266.8	0.0000	0.0000	0.0000	0.0000;
	10771	51.82	19.9	19.9	19.9	1.0383	72.35	1	51.82	51.82	0	0	0	0	0	0	0	0	0	0	51.825	0.0000	0.0000	0.0000	0.0000;
	10772	41.62	19.9	19.9	19.9	1.0393	52.68	1	41.62	41.62	0	0	0	0	0	0	0	0	0	0	51.825	0.0000	0.0000	0.0000	0.0000;
	10774	41.38	19.9	19.9	19.9	1.0372	57.61	1	41.38	41.38	0	0	0	0	0	0	0	0	0	0	51.825	0.0000	0.0000	0.0000	0.0000;
	10776	0	0	0	0	1.006	32.07	0	28	3.77	0	0	0	0	0	0	0	0	0	0	28	0.0000	0.0000	0.0000	0.0000;
	10776	14.32	0	0	0	1.006	23.98	1	14.32	14.32	0	0	0	0	0	0	0	0	0	0	20	0.0000	0.0000	0.0000	0.0000;
	10778	8.03	-0.49	3.84	-0.49	1.0192	11.56	1	8.03	8.03	0	0	0	0	0	0	0	0	0	0	10	0.0000	0.0000	0.0000	0.0000;
	10778	14.8	-0.73	5.68	-0.73	1.0192	14.94	1	14.8	14.8	0	0	0	0	0	0	0	0	0	0	14.8	0.0000	0.0000	0.0000	0.0000;
	10782	13.43	0	0	0	1.0143	27.32	1	13.43	13.43	0	0	0	0	0	0	0	0	0	0	18.3333	0.0000	0.0000	0.0000	0.0000;
	10782	14.65	0	0	0	1.0143	18.63	1	14.65	14.65	0	0	0	0	0	0	0	0	0	0	18.3333	0.0000	0.0000	0.0000	0.0000;
	10783	13.24	0	0	0	1.0143	22.11	1	13.24	13.24	0	0	0	0	0	0	0	0	0	0	18.3333	0.0000	0.0000	0.0000	0.0000;
	10784	17.21	0	0	0	1.0192	43.83	1	17.21	17.21	0	0	0	0	0	0	0	0	0	0	39.4	0.0000	0.0000	0.0000	0.0000;
	10784	42.83	0	0	0	1.0192	64.64	1	42.83	42.83	0	0	0	0	0	0	0	0	0	0	58.2	0.0000	0.0000	0.0000	0.0000;
	10785	39.4	0	0	0	1.0192	44.46	1	39.4	39.4	0	0	0	0	0	0	0	0	0	0	39.4	0.0000	0.0000	0.0000	0.0000;
	10785	31.08	0	0	0	1.0192	49.64	1	31.08	31.08	0	0	0	0	0	0	0	0	0	0	39.4	0.0000	0.0000	0.0000	0.0000;
	10791	58.2	22.43	22.43	22.43	0.9952	136.19	1	58.2	58.2	0	0	0	0	0	0	0	0	0	0	105.3	0.0000	0.0000	0.0000	0.0000;
	10797	41.46	9.64	21.23	-4.63	1.0438	62.55	1	41.7	8.83	0	0	0	0	0	0	0	0	0	0	41.7	0.0000	0.0000	0.0000	0.0000;
	10797	41.46	9.64	21.23	-4.63	1.0438	41.7	1	41.7	16.64	0	0	0	0	0	0	0	0	0	0	41.7	0.0000	0.0000	0.0000	0.0000;
	10798	41.46	-1.41	21.23	-4.63	1.027	41.7	1	41.7	13.81	0	0	0	0	0	0	0	0	0	0	41.7	0.0000	0.0000	0.0000	0.0000;
	10800	82.34	-1.24	20.83	-14.08	1.04	129.15	1	82.34	82.34	0	0	0	0	0	0	0	0	0	0	97.8	0.0000	0.0000	0.0000	0.0000;
	10802	10.22	-0.26	4.61	-0.59	1.0403	14.15	1	10.22	10.22	0	0	0	0	0	0	0	0	0	0	12	0.0000	0.0000	0.0000	0.0000;
	10803	12	-0.4	4.61	-0.59	1.0403	12.12	1	12	12	0	0	0	0	0	0	0	0	0	0	12	0.0000	0.0000	0.0000	0.0000;
	10806	34.74	-2.23	17.51	-2.23	1.0221	52.42	1	34.74	34.74	0	0	0	0	0	0	0	0	0	0	45.6	0.0000	0.0000	0.0000	0.0000;
	10806	42.97	-2.23	17.51	-2.23	1.0221	61.48	1	42.97	42.97	0	0	0	0	0	0	0	0	0	0	45.6	0.0000	0.0000	0.0000	0.0000;
	10807	0	0	17.51	-2.23	1.0221	68.4	0	45.6	21.01	0	0	0	0	0	0	0	0	0	0	45.6	0.0000	0.0000	0.0000	0.0000;
	10807	30.26	-2.23	17.51	-2.23	1.0221	51.24	1	30.26	30.26	0	0	0	0	0	0	0	0	0	0	45.6	0.0000	0.0000	0.0000	0.0000;
	10811	1193.21	441.6	441.6	-98.4	1.077	1400.38	1	1200	469.13	0	0	0	0	0	0	0	0	0	0	1200	0.0000	0.0000	0.0000	0.0000;
	10813	56.32	-3.28	25.73	-3.28	1.0153	74.5	1	56.32	56.32	0	0	0	0	0	0	0	0	0	0	67	0.0000	0.0000	0.0000	0.0000;
	10813	0	0	25.73	-3.28	1.0153	91.7	0	67	30.37	0	0	0	0	0	0	0	0	0	0	67	0.0000	0.0000	0.0000	0.0000;
	10817	50.7	0	0	0	1.04	68.96	1	50.7	50.7	0	0	0	0	0	0	0	0	0	0	50.7	0.0000	0.0000	0.0000	0.0000;
	10829	75.24	0.18	51.84	-6.62	1.0232	168.3	1	75.24	75.24	0	0	0	0	0	0	0	0	0	0	135	0.0000	0.0000	0.0000	0.0000;
	10830	135	0.18	51.84	-6.62	1.0232	159.7	1	135	135	0	0	0	0	0	0	0	0	0	0	135	0.0000	0.0000	0.0000	0.0000;
	10831	106.15	0.18	51.84	-6.62	1.0232	152.07	1	106.15	106.15	0	0	0	0	0	0	0	0	0	0	135	0.0000	0.0000	0.0000	0.0000;
	10832	135	0.18	51.84	-6.62	1.0232	143.54	1	135	135	0	0	0	0	0	0	0	0	0	0	135	0.0000	0.0000	0.0000	0.0000;
	10833	88.14	0.18	51.84	-6.62	1.0232	177.11	1	88.14	88.14	0	0	0	0	0	0	0	0	0	0	135	0.0000	0.0000	0.0000	0.0000;
	10834	75.59	0.18	51.84	-6.62	1.0232	175.15	1	75.59	75.59	0	0	0	0	0	0	0	0	0	0	135	0.0000	0.0000	0.0000	0.0000;
	10836	88.4	-9.87	45.25	-9.87	1.0221	116.35	1	88.9	20.57	0	0	0	0	0	0	0	0	0	0	88.9	0.0000	0.0000	0.0000	0.0000;
	10836	88.4	-9.87	45.25	-9.87	1.0221	90.43	1	88.9	14.92	0	0	0	0	0	0	0	0	0	0	88.9	0.0000	0.0000	0.0000	0.0000;
	10838	45.58	0	0	0	1.04	91.58	1	45.58	45.58	0	0	0	0	0	0	0	0	0	0	64	0.0000	0.0000	0.0000	0.0000;
	10842	10.5	4.92	4.92	-0.63	1.038	12.8	1	10.5	10.5	0	0	0	0	0	0	0	0	0	0	12.8	0.0000	0.0000	0.0000	0.0000;
	10842	8.22	4.92	4.92	-0.63	1.038	16.02	1	8.22	8.22	0	0	0	0	0	0	0	0	0	0	12.8	0.0000	0.0000	0.0000	0.0000;
	10843	11.05	-0.63	4.92	-0.63	1.0182	13.06	1	11.05	11.05	0	0	0	0	0	0	0	0	0	0	12.8	0.0000	0.0000	0.0000	0.0000;
	10843	0	0	4.92	-0.63	1.0182	14.28	0	12.8	3.56	0	0	0	0	0	0	0	0	0	0	12.8	0.0000	0.0000	0.0000	0.0000;
	10843	8.89	-0.63	4.92	-0.63	1.0182	12.8	1	8.89	8.89	0	0	0	0	0	0	0	0	0	0	12.8	0.0000	0.0000	0.0000	0.0000;
	10847	100.5	-4.92	38.59	-4.92	1.0305	118.86	1	100.5	100.5	0	0	0	0	0	0	0	0	0	0	100.5	0.0000	0.0000	0.0000	0.0000;
	10848	78.52	-4.92	38.59	-4.92	1.0305	140.04	1	78.52	78.52	0	0	0	0	0	0	0	0	0	0	100.5	0.0000	0.0000	0.0000	0.0000;
	10849	83.39	-4.92	38.59	-4.92	1.0305	128.45	1	83.39	83.39	0	0	0	0	0	0	0	0	0	0	100.5	0.0000	0.0000	0.0000	0.0000;
	10850	87.3	-4.92	38.59	-4.92	1.0303	120.81	1	87.3	87.3	0	0	0	0	0	0	0	0	0	0	100.5	0.0000	0.0000	0.0000	0.0000;
	10851	80.36	-4.92	38.59	-4.92	1.0305	108.12	1	80.36	80.36	0	0	0	0	0	0	0	0	0	0	100.5	0.0000	0.0000	0.0000	0.0000;
	10852	99.06	-4.92	38.59	-4.92	1.0306	100.5	1	99.06	99.06	0	0	0	0	0	0	0	0	0	0	100.5	0.0000	0.0000	0.0000	0.0000;
	10860	321.72	-89.05	340.13	-89.05	1.034	887.05	1	729.9	312.19	0	0	0	0	0	0	0	0	0	0	729.9	0.0000	0.0000	0.0000	0.0000;
	10864	103.61	57.6	57.6	57.6	1.0055	187.87	1	103.61	103.61	0	0	0	0	0	0	0	0	0	0	150	0.0000	0.0000	0.0000	0.0000;
	10865	110.96	57.6	57.6	57.6	1.0059	209	1	110.96	110.96	0	0	0	0	0	0	0	0	0	0	150	0.0000	0.0000	0.0000	0.0000;
	10867	11.12	5.76	5.76	-0.74	1.014	15.21	1	11.12	11.12	0	0	0	0	0	0	0	0	0	0	15	0.0000	0.0000	0.0000	0.0000;
	10867	11.39	5.76	5.76	-0.74	1.014	20.37	1	11.39	11.39	0	0	0	0	0	0	0	0	0	0	15	0.0000	0.0000	0.0000	0.0000;
	10869	0	0	3.84	-0.49	1.0206	10	0	10	3.11	0	0	0	0	0	0	0	0	0	0	10	0.0000	0.0000	0.0000	0.0000;
	10869	10	3.84	3.84	3.84	1.0021	11.12	1	10	10	0	0	0	0	0	0	0	0	0	0	10	0.0000	0.0000	0.0000	0.0000;
	10872	61.45	31.46	31.46	31.46	1.0226	90.38	1	61.8	28.09	0	0	0	0	0	0	0	0	0	0	61.8	0.0000	0.0000	0.0000	0.0000;
	10873	21.91	-1.45	11.37	-1.45	1.0192	33.07	1	21.91	21.91	0	0	0	0	0	0	0	0	0	0	29.6	0.0000	0.0000	0.0000	0.0000;
	10873	0	0	11.37	-1.45	1.0192	38.51	0	29.6	4.59	0	0	0	0	0	0	0	0	0	0	29.6	0.0000	0.0000	0.0000	0.0000;
	10879	70.43	-6.62	51.84	-6.62	1.0332	149.8	1	70.43	70.43	0	0	0	0	0	0	0	0	0	0	135	0.0000	0.0000	0.0000	0.0000;
	10880	109.22	-6.62	51.84	-6.62	1.0334	177	1	109.22	109.22	0	0	0	0	0	0	0	0	0	0	135	0.0000	0.0000	0.0000	0.0000;
	10881	73.16	-6.62	51.84	-6.62	1.0332	178	1	73.16	73.16	0	0	0	0	0	0	0	0	0	0	135	0.0000	0.0000	0.0000	0.0000;
	10884	118.13	-6.62	51.84	-6.62	1.0332	153.95	1	118.13	118.13	0	0	0	0	0	0	0	0	0	0	135	0.0000	0.0000	0.0000	0.0000;
	10889	87.3	43	44.69	-9.75	1.0387	110.05	1	87.8	43.63	0	0	0	0	0	0	0	0	0	0	87.8	0.0000	0.0000	0.0000	0.0000;
	10895	93.47	-10.43	47.85	-10.43	1.0245	115.42	1	94	38.95	0	0	0	0	0	0	0	0	0	0	94	0.0000	0.0000	0.0000	0.0000;
	10896	93.47	-10.43	47.85	-10.43	1.0244	108.98	1	94	11.61	0	0	0	0	0	0	0	0	0	0	94	0.0000	0.0000	0.0000	0.0000;
	10897	93.47	-10.43	47.85	-10.43	1.0248	118.83	1	94	28.67	0	0	0	0	0	0	0	0	0	0	94	0.0000	0.0000	0.0000	0.0000;
	10898	93.47	-10.43	47.85	-10.43	1.0247	138.07	1	94	39.72	0	0	0	0	0	0	0	0	0	0	94	0.0000	0.0000	0.0000	0.0000;
	10901	36.21	-2.25	17.66	-2.25	1.0263	61.88	1	36.21	36.21	0	0	0	0	0	0	0	0	0	0	46	0.0000	0.0000	0.0000	0.0000;
	10904	37.13	-2.04	10.65	-7.2	1.0489	64.29	1	37.13	37.13	0	0	0	0	0	0	0	0	0	0	50	0.0000	0.0000	0.0000	0.0000;
	10908	115.41	-8.37	65.61	-8.37	1.0341	202.81	1	115.41	115.41	0	0	0	0	0	0	0	0	0	0	170.8667	0.0000	0.0000	0.0000	0.0000;
	10910	99.62	-8.37	65.61	-8.37	1.028	185.54	1	99.62	99.62	0	0	0	0	0	0	0	0	0	0	170.8667	0.0000	0.0000	0.0000	0.0000;
	10912	116.3	-8.37	65.61	-8.37	1.0279	246.02	1	116.3	116.3	0	0	0	0	0	0	0	0	0	0	170.87	0.0000	0.0000	0.0000	0.0000;
	10914	7.23	-0.46	3.61	-0.46	1.0283	9.4	1	7.23	7.23	0	0	0	0	0	0	0	0	0	0	9.4	0.0000	0.0000	0.0000	0.0000;
	10919	112.5	-5.51	43.2	-5.51	1.0319	148.42	1	112.5	112.5	0	0	0	0	0	0	0	0	0	0	112.5	0.0000	0.0000	0.0000	0.0000;
	10921	93.79	-5.51	43.2	-5.51	1.0322	131.63	1	93.79	93.79	0	0	0	0	0	0	0	0	0	0	112.5	0.0000	0.0000	0.0000	0.0000;
	10923	84.12	43.06	43.06	43.06	1.0391	107.98	1	84.6	19.89	0	0	0	0	0	0	0	0	0	0	84.6	0.0000	0.0000	0.0000	0.0000;
	10923	84.12	43.06	43.06	43.06	1.0391	85.56	1	84.6	35	0	0	0	0	0	0	0	0	0	0	84.6	0.0000	0.0000	0.0000	0.0000;
	10925	16.8	-0.82	6.45	-0.82	1.0157	16.87	1	16.8	16.8	0	0	0	0	0	0	0	0	0	0	16.8	0.0000	0.0000	0.0000	0.0000;
	10925	6.52	-0.37	2.88	-0.37	1.0157	8.37	1	6.52	6.52	0	0	0	0	0	0	0	0	0	0	7.5	0.0000	0.0000	0.0000	0.0000;
	10930	87.2	58.53	118.43	-25.83	1.062	310.59	1	232.67	84.16	0	0	0	0	0	0	0	0	0	0	232.6667	0.0000	0.0000	0.0000	0.0000;
	10931	231.35	58.53	118.43	-25.83	1.0518	290.05	1	232.67	37.97	0	0	0	0	0	0	0	0	0	0	232.6667	0.0000	0.0000	0.0000	0.0000;
	10932	231.35	58.53	118.43	-25.83	1.0591	261.17	1	232.67	90.77	0	0	0	0	0	0	0	0	0	0	232.6667	0.0000	0.0000	0.0000	0.0000;
	10933	50	-7.2	10.65	-7.2	1.0192	50	1	50	50	0	0	0	0	0	0	0	0	0	0	50	0.0000	0.0000	0.0000	0.0000;
	10934	36	-1.76	13.82	-1.76	1.0172	39.66	1	36	36	0	0	0	0	0	0	0	0	0	0	36	0.0000	0.0000	0.0000	0.0000;
	10934	36	-1.76	13.82	-1.76	1.0172	53.42	1	36	36	0	0	0	0	0	0	0	0	0	0	36	0.0000	0.0000	0.0000	0.0000;
	10938	14.84	0	0	0	1.039	20.22	1	14.84	14.84	0	0	0	0	0	0	0	0	0	0	18	0.0000	0.0000	0.0000	0.0000;
	10944	123.26	-6.62	51.84	-6.62	1.0334	147.93	1	123.26	123.26	0	0	0	0	0	0	0	0	0	0	135	0.0000	0.0000	0.0000	0.0000;
	10945	118.78	-6.62	51.84	-6.62	1.0333	194.09	1	118.78	118.78	0	0	0	0	0	0	0	0	0	0	135	0.0000	0.0000	0.0000	0.0000;
	10946	135	-6.62	51.84	-6.62	1.0337	154.67	1	135	135	0	0	0	0	0	0	0	0	0	0	135	0.0000	0.0000	0.0000	0.0000;
	10947	109.12	-6.62	51.84	-6.62	1.0335	200.23	1	109.12	109.12	0	0	0	0	0	0	0	0	0	0	135	0.0000	0.0000	0.0000	0.0000;
	10949	90.42	-6.62	51.84	-6.62	1.0336	172.19	1	90.42	90.42	0	0	0	0	0	0	0	0	0	0	135	0.0000	0.0000	0.0000	0.0000;
	10955	32.11	4.01	13.06	-1.67	1.0191	34.02	1	32.11	32.11	0	0	0	0	0	0	0	0	0	0	34	0.0000	0.0000	0.0000	0.0000;
	10955	17.04	4.01	13.06	-1.67	1.0191	41.9	1	17.04	17.04	0	0	0	0	0	0	0	0	0	0	34	0.0000	0.0000	0.0000	0.0000;
	10959	221.29	55.85	55.85	55.85	0.9991	336.76	1	221.29	221.29	0	0	0	0	0	0	0	0	0	0	262.2	0.0000	0.0000	0.0000	0.0000;
	10966	0	0	2.65	-0.34	1.0221	6.96	0	6.9	2.85	0	0	0	0	0	0	0	0	0	0	6.9	0.0000	0.0000	0.0000	0.0000;
	10966	5.28	-0.34	2.65	-0.34	1.0221	9.31	1	5.28	5.28	0	0	0	0	0	0	0	0	0	0	6.9	0.0000	0.0000	0.0000	0.0000;
	10966	20.12	-0.54	10.56	-1.35	1.0221	36	1	20.12	20.12	0	0	0	0	0	0	0	0	0	0	27.5	0.0000	0.0000	0.0000	0.0000;
	10972	13.16	-0.86	6.72	-0.86	0.9959	18.98	1	13.16	13.16	0	0	0	0	0	0	0	0	0	0	17.5	0.0000	0.0000	0.0000	0.0000;
	10972	17.5	-0.86	6.72	-0.86	0.9959	21.37	1	17.5	17.5	0	0	0	0	0	0	0	0	0	0	17.5	0.0000	0.0000	0.0000	0.0000;
	10973	0	0	6.72	-0.86	0.9959	21.11	0	17.5	8.42	0	0	0	0	0	0	0	0	0	0	17.5	0.0000	0.0000	0.0000	0.0000;
	10973	17.5	-0.86	6.72	-0.86	0.9959	19.51	1	17.5	17.5	0	0	0	0	0	0	0	0	0	0	17.5	0.0000	0.0000	0.0000	0.0000;
	10978	95.9	20.43	20.43	20.43	1.0383	103.8	1	95.9	95.9	0	0	0	0	0	0	0	0	0	0	95.9	0.0000	0.0000	0.0000	0.0000;
	10981	97.59	29.03	29.03	-19.63	1.0497	168.9	1	97.59	97.59	0	0	0	0	0	0	0	0	0	0	136.3	0.0000	0.0000	0.0000	0.0000;
	10982	92.02	29.03	29.03	-19.63	1.0475	154.45	1	92.02	92.02	0	0	0	0	0	0	0	0	0	0	136.3	0.0000	0.0000	0.0000	0.0000;
	10985	199	5.59	42.39	-28.66	1.0323	199.13	1	199	199	0	0	0	0	0	0	0	0	0	0	199	0.0000	0.0000	0.0000	0.0000;
	10989	215.44	-24.05	110.28	-24.05	1.0373	295.91	1	216.67	63.89	0	0	0	0	0	0	0	0	0	0	216.67	0.0000	0.0000	0.0000	0.0000;
	10990	215.44	-24.05	110.28	-24.05	1.0375	242.35	1	216.67	56.96	0	0	0	0	0	0	0	0	0	0	216.6667	0.0000	0.0000	0.0000	0.0000;
	10991	215.44	-24.05	110.28	-24.05	1.0379	322.3	1	216.67	22.69	0	0	0	0	0	0	0	0	0	0	216.67	0.0000	0.0000	0.0000	0.0000;
	10995	20.62	-1.01	7.92	-1.01	1.0412	25.07	1	20.62	20.62	0	0	0	0	0	0	0	0	0	0	20.625	0.0000	0.0000	0.0000	0.0000;
	10998	16.51	-1.22	9.6	-1.22	1.0048	34.25	1	16.51	16.51	0	0	0	0	0	0	0	0	0	0	25	0.0000	0.0000	0.0000	0.0000;
	10998	25	-1.22	9.6	-1.22	1.0048	28.91	1	25	25	0	0	0	0	0	0	0	0	0	0	25	0.0000	0.0000	0.0000	0.0000;
	11005	141.35	72.35	72.35	72.35	1.0167	171.01	1	142.15	44.8	0	0	0	0	0	0	0	0	0	0	142.15	0.0000	0.0000	0.0000	0.0000;
	11006	141.35	72.35	72.35	72.35	1.018	185.88	1	142.15	15.96	0	0	0	0	0	0	0	0	0	0	142.15	0.0000	0.0000	0.0000	0.0000;
	11008	21.6	8.29	8.29	8.29	1.029	27.1	1	21.6	21.6	0	0	0	0	0	0	0	0	0	0	21.6	0.0000	0.0000	0.0000	0.0000;
	11009	16.3	8.29	8.29	8.29	1.0255	22.46	1	16.3	16.3	0	0	0	0	0	0	0	0	0	0	21.6	0.0000	0.0000	0.0000	0.0000;
	11009	5.97	4.92	4.92	4.92	1.0255	19.2	1	5.97	5.97	0	0	0	0	0	0	0	0	0	0	12.8	0.0000	0.0000	0.0000	0.0000;
	11014	812.69	331.14	415.68	-53.04	1.0702	1169.43	1	812.69	812.69	0	0	0	0	0	0	0	0	0	0	1082.5	0.0000	0.0000	0.0000	0.0000;
	11016	1082.5	331.14	415.68	-53.04	1.064	1357.65	1	1082.5	1082.5	0	0	0	0	0	0	0	0	0	0	1082.5	0.0000	0.0000	0.0000	0.0000;
	11018	885.08	331.14	415.68	-53.04	1.0624	1082.5	1	885.08	885.08	0	0	0	0	0	0	0	0	0	0	1082.5	0.0000	0.0000	0.0000	0.0000;
	11019	754.61	331.14	415.68	-53.04	1.062	1299.87	1	754.61	754.61	0	0	0	0	0	0	0	0	0	0	1082.5	0.0000	0.0000	0.0000	0.0000;
	11020	52.33	20.1	20.1	20.1	1.0431	59.07	1	52.33	52.33	0	0	0	0	0	0	0	0	0	0	52.3333	0.0000	0.0000	0.0000	0.0000;
	11021	26.5	20.1	20.1	20.1	1.0436	56.77	1	26.5	26.5	0	0	0	0	0	0	0	0	0	0	52.3333	0.0000	0.0000	0.0000	0.0000;
	11023	40.81	20.1	20.1	20.1	1.0431	66.3	1	40.81	40.81	0	0	0	0	0	0	0	0	0	0	52.3333	0.0000	0.0000	0.0000	0.0000;
	11025	40.92	20.1	20.1	20.1	1.0431	61.62	1	40.92	40.92	0	0	0	0	0	0	0	0	0	0	52.3333	0.0000	0.0000	0.0000	0.0000;
	11031	94.63	-10.56	48.44	-10.56	1.0421	125.95	1	95.17	16.13	0	0	0	0	0	0	0	0	0	0	95.17	0.0000	0.0000	0.0000	0.0000;
	11032	94.63	-10.56	48.44	-10.56	1.0411	114.43	1	95.17	22.8	0	0	0	0	0	0	0	0	0	0	95.1667	0.0000	0.0000	0.0000	0.0000;
	11033	94.63	-10.56	48.44	-10.56	1.0411	118.26	1	95.17	21.44	0	0	0	0	0	0	0	0	0	0	95.1667	0.0000	0.0000	0.0000	0.0000;
	11035	14.85	0	0	0	1.04	17.51	1	14.85	14.85	0	0	0	0	0	0	0	0	0	0	14.85	0.0000	0.0000	0.0000	0.0000;
	11035	7.71	0	0	0	1.04	15.95	1	7.71	7.71	0	0	0	0	0	0	0	0	0	0	14.85	0.0000	0.0000	0.0000	0.0000;
	11035	0	0	0	0	1.04	16.37	0	14.85	5.54	0	0	0	0	0	0	0	0	0	0	14.85	0.0000	0.0000	0.0000	0.0000;
	11035	0	0	0	0	1.04	14.85	0	14.85	6.91	0	0	0	0	0	0	0	0	0	0	14.85	0.0000	0.0000	0.0000	0.0000;
	11037	9.69	-0.59	4.61	-0.59	1.0212	12	1	9.69	9.69	0	0	0	0	0	0	0	0	0	0	12	0.0000	0.0000	0.0000	0.0000;
	11037	37.76	-2.57	20.12	-2.57	1.0212	71.38	1	37.76	37.76	0	0	0	0	0	0	0	0	0	0	52.4	0.0000	0.0000	0.0000	0.0000;
	11037	0	0	20.12	-2.57	1.0212	72.34	0	52.4	6.25	0	0	0	0	0	0	0	0	0	0	52.4	0.0000	0.0000	0.0000	0.0000;
	11045	131.96	-8.49	66.55	-8.49	1.0353	213.54	1	131.96	131.96	0	0	0	0	0	0	0	0	0	0	173.3	0.0000	0.0000	0.0000	0.0000;
	11046	129.26	-8.49	66.55	-8.49	1.0352	205.09	1	129.26	129.26	0	0	0	0	0	0	0	0	0	0	173.3	0.0000	0.0000	0.0000	0.0000;
	11047	22.81	1.26	10.29	-1.31	1.04	31.77	1	22.81	22.81	0	0	0	0	0	0	0	0	0	0	26.8	0.0000	0.0000	0.0000	0.0000;
	11050	246.6	126.23	126.23	126.23	1.0356	301.43	1	248	115.79	0	0	0	0	0	0	0	0	0	0	248	0.0000	0.0000	0.0000	0.0000;
	11052	44.37	-9.4	16.68	-11.28	1.0182	84.32	1	44.37	44.37	0	0	0	0	0	0	0	0	0	0	78.3	0.0000	0.0000	0.0000	0.0000;
	11053	51.88	-8.93	16.68	-11.28	1.0182	87.82	1	51.88	51.88	0	0	0	0	0	0	0	0	0	0	78.3	0.0000	0.0000	0.0000	0.0000;
	11054	6.59	3.07	3.07	3.07	1.0151	12	1	6.59	6.59	0	0	0	0	0	0	0	0	0	0	8	0.0000	0.0000	0.0000	0.0000;
	11054	5.96	3.07	3.07	3.07	1.0151	12	1	5.96	5.96	0	0	0	0	0	0	0	0	0	0	8	0.0000	0.0000	0.0000	0.0000;
	11054	6.19	3.07	3.07	3.07	1.0151	8.98	1	6.19	6.19	0	0	0	0	0	0	0	0	0	0	8	0.0000	0.0000	0.0000	0.0000;
	11054	0	0	3.07	-0.39	1.0182	9.73	0	8	0.92	0	0	0	0	0	0	0	0	0	0	8	0.0000	0.0000	0.0000	0.0000;
	11060	105.3	22.43	22.43	22.43	1.0411	131.75	1	105.3	105.3	0	0	0	0	0	0	0	0	0	0	105.3	0.0000	0.0000	0.0000	0.0000;
	11061	105.3	22.43	22.43	22.43	1.0408	119.42	1	105.3	105.3	0	0	0	0	0	0	0	0	0	0	105.3	0.0000	0.0000	0.0000	0.0000;
	11062	0	0	5.8	-1.27	1.0192	14.44	0	11.4	3.39	0	0	0	0	0	0	0	0	0	0	11.4	0.0000	0.0000	0.0000	0.0000;
	11062	0	0	5.8	-1.27	1.0192	12.63	0	11.4	2.22	0	0	0	0	0	0	0	0	0	0	11.4	0.0000	0.0000	0.0000	0.0000;
	11062	0	0	5.8	-1.27	1.0192	13.52	0	11.4	1.74	0	0	0	0	0	0	0	0	0	0	11.4	0.0000	0.0000	0.0000	0.0000;
	11062	11.34	5.8	5.8	-1.27	1.0192	12.63	1	11.4	2.76	0	0	0	0	0	0	0	0	0	0	11.4	0.0000	0.0000	0.0000	0.0000;
	11065	130.66	37.68	37.68	37.68	1.0633	186.09	1	130.66	130.66	0	0	0	0	0	0	0	0	0	0	176.9	0.0000	0.0000	0.0000	0.0000;
	11069	204	43.45	43.45	-29.38	1.0409	219.02	1	204	204	0	0	0	0	0	0	0	0	0	0	204	0.0000	0.0000	0.0000	0.0000;
	11072	158.6	-17.7	81.19	-17.7	1.0242	217.04	1	159.5	34.15	0	0	0	0	0	0	0	0	0	0	159.5	0.0000	0.0000	0.0000	0.0000;
	11073	158.6	-17.7	81.19	-17.7	1.0225	217.26	1	159.5	28.31	0	0	0	0	0	0	0	0	0	0	159.5	0.0000	0.0000	0.0000	0.0000;
...
];

%% branch data
%	fbus	tbus	r	x	b	rateA	rateB	rateC	ratio	angle	status	angmin	angmax	Pf	Qf	Pt	Qt	mu_Sf	mu_St	mu_angmin	mu_angmax
mpc.branch = [
	10012	10019	0.010083	1.201721	0	0	0	0	0	0	1	0	0	7.1900	-0.1200	-7.1800	0.6900	0.0000	0.0000	0.0000	0.0000;
	10012	10023	0.001396	0.016565	0.31452	1105.1	0	0	0	0	1	0	0	116.0700	-7.9200	-115.9000	-23.6900	0.0000	0.0000	0.0000	0.0000;
	10012	10023	0.021976	0.523853	0	0	0	0	0	0	1	0	0	3.6600	0.4400	-3.6600	-0.3700	0.0000	0.0000	0.0000	0.0000;
	10012	10731	0.076282	0.653508	0	0	0	0	0	0	1	0	0	11.5800	-0.9300	-11.4900	1.7500	0.0000	0.0000	0.0000	0.0000;
	10012	10938	0.047327	1.971414	0	0	0	0	0	0	1	0	0	-2.7900	0.5200	2.7900	-0.3700	0.0000	0.0000	0.0000	0.0000;
	10012	10987	0.000883	0.009393	0.17078	1237.08	0	0	0	0	1	0	0	-311.8500	-30.0900	312.6500	20.2000	0.0000	0.0000	0.0000	0.0000;
	10012	10987	0.020372	0.306612	0	0	0	0	0	0	1	0	0	-9.5500	-0.9000	9.5700	1.1700	0.0000	0.0000	0.0000	0.0000;
	10023	10731	0.067981	0.584211	0	0	0	0	0	0	1	0	0	9.6200	-1.3500	-9.5600	1.8700	0.0000	0.0000	0.0000	0.0000;
	10023	10987	0.004289	0.141934	0	0	0	0	0	0	1	0	0	-34.0800	-3.8600	34.1300	5.4300	0.0000	0.0000	0.0000	0.0000;
	10057	10059	0.000237	0.001074	0	0	0	0	0	0	1	0	0	-192.2800	-39.0300	192.3600	39.4200	0.0000	0.0000	0.0000	0.0000;
	10057	10757	0.042881	0.471251	0	0	0	0	0	0	1	0	0	-9.1400	-0.4400	9.1800	0.8100	0.0000	0.0000	0.0000	0.0000;
	10057	10836	0.011462	0.160088	0	0	0	0	0	0	1	0	0	39.0300	-3.3400	-38.8700	5.6500	0.0000	0.0000	0.0000	0.0000;
	10057	10843	0.234677	1.807554	0	0	0	0	0	0	1	0	0	1.0700	-0.3100	-1.0600	0.3300	0.0000	0.0000	0.0000	0.0000;
	10057	10862	0.013766	1.201969	0	0	0	0	0	0	1	0	0	-4.0300	-0.7500	4.0300	0.9400	0.0000	0.0000	0.0000	0.0000;
	10057	10928	0.003046	0.476686	0	0	0	0	0	0	1	0	0	-12.3800	-2.5000	12.3800	3.2200	0.0000	0.0000	0.0000	0.0000;
	10059	10462	0.001137	0.014419	0.70236	1228.28	0	0	0	0	1	0	0	241.8200	9.7000	-241.1800	-75.5600	0.0000	0.0000	0.0000	0.0000;
	10078	10330	6.5e-05	2.393966	0	0	0	0	0	0	1	0	0	0.1100	1.1900	-0.1100	-1.1600	0.0000	0.0000	0.0000	0.0000;
	10078	10459	0.008484	0.635141	0	0	0	0	0	0	1	0	0	-1.7900	4.1100	1.7900	-3.9900	0.0000	0.0000	0.0000	0.0000;
	10078	10731	0.05454	0.999505	0	0	0	0	0	0	1	0	0	3.8200	-0.3800	-3.8100	0.5200	0.0000	0.0000	0.0000	0.0000;
	10078	10838	0.000957	0.012068	0.68187	1170.64	0	0	0	0	1	0	0	-203.2200	-19.2600	203.5900	-48.9700	0.0000	0.0000	0.0000	0.0000;
	10117	10758	0.006412	1.199693	0	0	0	0	0	0	1	0	0	-2.9600	0.6000	2.9600	-0.5000	0.0000	0.0000	0.0000	0.0000;
	10117	10785	0.070259	0.762267	0	0	0	0	0	0	1	0	0	18.6100	0.4000	-18.3800	2.0600	0.0000	0.0000	0.0000	0.0000;
	10117	10798	0.025233	1.780561	0	0	0	0	0	0	1	0	0	-8.2800	1.2800	8.2900	-0.1200	0.0000	0.0000	0.0000	0.0000;
	10117	10917	0.178763	2.387568	0	0	0	0	0	0	1	0	0	-3.7400	0.7500	3.7700	-0.4200	0.0000	0.0000	0.0000	0.0000;
	10117	11037	0.028985	2.123429	0	0	0	0	0	0	1	0	0	0.8900	0.7400	-0.8900	-0.7200	0.0000	0.0000	0.0000	0.0000;
	10127	10330	0.012068	2.160237	0	0	0	0	0	0	1	0	0	-0.4100	0.6000	0.4100	-0.5900	0.0000	0.0000	0.0000	0.0000;
	10127	10459	0.015539	0.613924	0	0	0	0	0	0	1	0	0	-3.7100	1.8200	3.7200	-1.7100	0.0000	0.0000	0.0000	0.0000;
	10127	10730	0.001135	0.014705	0.31386	1116.83	0	0	0	0	1	0	0	-52.1700	-107.1000	52.2900	75.6100	0.0000	0.0000	0.0000	0.0000;
	10127	10731	0.005661	0.233178	0	0	0	0	0	0	1	0	0	10.9400	-7.6700	-10.9300	8.0700	0.0000	0.0000	0.0000	0.0000;
	10127	10836	0.04605	0.870409	0	0	0	0	0	0	1	0	0	1.5100	-1.7000	-1.5100	1.7500	0.0000	0.0000	0.0000	0.0000;
	10192	10813	0.000777	0.010797	0.23745	1215.9	0	0	0	0	1	0	0	-223.6100	-108.8000	224.0600	90.7600	0.0000	0.0000	0.0000	0.0000;
	10192	10934	0.012513	0.27814	0	0	0	0	0	0	1	0	0	-2.6600	-6.7400	2.6600	6.8800	0.0000	0.0000	0.0000	0.0000;
	10192	10953	0.003317	1.44187	0	0	0	0	0	0	1	0	0	-1.3100	-0.7100	1.3100	0.7400	0.0000	0.0000	0.0000	0.0000;
	10192	11001	0.002347	0.029145	1.41418	1396.92	0	0	0	0	1	0	0	-525.5100	-142.0300	532.0200	73.1800	0.0000	0.0000	0.0000	0.0000;
	10192	13180	0.000613	0.007345	0.18007	1182.41	0	0	0	0	1	0	0	191.3600	58.7400	-191.1100	-73.9000	0.0000	0.0000	0.0000	0.0000;
	10192	13264	0.027034	2.351036	0	0	0	0	0	0	1	0	0	0.4800	0.0300	-0.4800	-0.0300	0.0000	0.0000	0.0000	0.0000;
	10192	13324	0.076057	2.261039	0	0	0	0	0	0	1	0	0	1.6900	-0.0800	-1.6800	0.1500	0.0000	0.0000	0.0000	0.0000;
	10192	13667	0.003445	0.407939	0	0	0	0	0	0	1	0	0	-11.6700	-2.5700	11.6800	3.1500	0.0000	0.0000	0.0000	0.0000;
	10196	10198	0.000278	0.001057	0	0	0	0	0	0	1	0	0	55.1800	29.1300	-55.1700	-29.0900	0.0000	0.0000	0.0000	0.0000;
	10196	10462	0.011414	1.829162	0	0	0	0	0	0	1	0	0	2.0000	0.8200	-2.0000	-0.7400	0.0000	0.0000	0.0000	0.0000;
	10196	10735	0.000402	0.005207	0.14362	1224.4	0	0	0	0	1	0	0	-295.4300	-141.5900	295.8200	131.1300	0.0000	0.0000	0.0000	0.0000;
	10196	10836	0.02387	0.271954	0	0	0	0	0	0	1	0	0	24.7500	-0.0200	-24.6100	1.5700	0.0000	0.0000	0.0000	0.0000;
	10196	10843	0.047047	1.993619	0	0	0	0	0	0	1	0	0	1.2200	0.1500	-1.2100	-0.1200	0.0000	0.0000	0.0000	0.0000;
	10196	10857	0.001289	0.014839	0.36138	1224.13	0	0	0	0	1	0	0	-261.0200	-9.0300	261.8400	-20.4900	0.0000	0.0000	0.0000	0.0000;
	10275	10117	0.001233	0.013303	0.39851	1345.52	0	0	0	0	1	0	0	-503.3300	-108.4400	506.4400	99.9200	0.0000	0.0000	0.0000	0.0000;
	10275	10330	0.000699	0.008558	0.18453	1189.39	0	0	0	0	1	0	0	256.5300	103.6100	-255.9900	-116.0100	0.0000	0.0000	0.0000	0.0000;
	10275	10330	0.006259	0.254751	0	0	0	0	0	0	1	0	0	8.4100	4.3000	-8.4100	-4.0800	0.0000	0.0000	0.0000	0.0000;
	10275	10346	0.03031	1.775965	0	0	0	0	0	0	1	0	0	1.0000	0.1900	-1.0000	-0.1700	0.0000	0.0000	0.0000	0.0000;
	10275	10459	0.0023	0.052024	0	0	0	0	0	0	1	0	0	14.2700	15.9700	-14.2600	-15.7400	0.0000	0.0000	0.0000	0.0000;
	10275	10462	0.138677	1.389125	0	0	0	0	0	0	1	0	0	1.0200	-0.4700	-1.0100	0.4900	0.0000	0.0000	0.0000	0.0000;
	10275	10468	0.049604	1.46468	0	0	0	0	0	0	1	0	0	0.5500	0.2800	-0.5500	-0.2800	0.0000	0.0000	0.0000	0.0000;
	10275	10729	0.00785	0.159975	0	0	0	0	0	0	1	0	0	22.8700	-17.0900	-22.8100	18.3500	0.0000	0.0000	0.0000	0.0000;
	10275	10731	0.203016	2.19027	0	0	0	0	0	0	1	0	0	2.5000	-1.0400	-2.4800	1.1900	0.0000	0.0000	0.0000	0.0000;
	10275	10758	0.002116	0.027225	0.61943	1303.32	0	0	0	0	1	0	0	-368.6000	-35.8300	371.3700	6.5800	0.0000	0.0000	0.0000	0.0000;
	10275	10758	0.062667	1.187219	0	0	0	0	0	0	1	0	0	-8.4600	-0.3000	8.5000	1.1200	0.0000	0.0000	0.0000	0.0000;
	10275	11037	0.126266	2.119506	0	0	0	0	0	0	1	0	0	-2.2000	-0.0300	2.2100	0.1300	0.0000	0.0000	0.0000	0.0000;
	10330	10332	0.000256	0.001131	0	0	0	0	0	0	1	0	0	52.7200	12.3800	-52.7100	-12.3500	0.0000	0.0000	0.0000	0.0000;
	10330	10369	0.094703	1.409249	0	0	0	0	0	0	1	0	0	-2.5100	-0.8600	2.5200	0.9600	0.0000	0.0000	0.0000	0.0000;
	10330	10427	0.001693	0.557226	0	0	0	0	0	0	1	0	0	-3.2100	-1.1500	3.2100	1.2100	0.0000	0.0000	0.0000	0.0000;
	10330	10432	0.011453	1.202423	0	0	0	0	0	0	1	0	0	-3.3700	-2.1100	3.3700	2.2900	0.0000	0.0000	0.0000	0.0000;
	10330	10459	0.001152	0.05984	0	0	0	0	0	0	1	0	0	-23.4800	-3.7600	23.4900	4.1000	0.0000	0.0000	0.0000	0.0000;
	10330	10462	0.00264	0.125686	0	0	0	0	0	0	1	0	0	-5.5800	-12.8200	5.5800	13.0600	0.0000	0.0000	0.0000	0.0000;
	10330	10729	0.123179	1.181611	0	0	0	0	0	0	1	0	0	1.0000	-3.2300	-0.9900	3.3700	0.0000	0.0000	0.0000	0.0000;
	10330	10836	0.109365	1.086068	0	0	0	0	0	0	1	0	0	1.8300	-2.6300	-1.8200	2.7400	0.0000	0.0000	0.0000	0.0000;
	10333	10427	0.000406	0.00496	0.12515	1137.85	0	0	0	0	1	0	0	-153.8000	-37.1900	153.9000	25.5700	0.0000	0.0000	0.0000	0.0000;
	10333	10462	0.06588	2.047336	0	0	0	0	0	0	1	0	0	0.1700	-0.5900	-0.1700	0.5900	0.0000	0.0000	0.0000	0.0000;
	10333	10729	0.117914	2.009853	0	0	0	0	0	0	1	0	0	1.2300	-1.6900	-1.2200	1.7700	0.0000	0.0000	0.0000	0.0000;
	10346	10353	0.000263	0.001129	0	0	0	0	0	0	1	0	0	-180.0600	21.5700	180.1500	-21.2100	0.0000	0.0000	0.0000	0.0000;
	10346	10459	0.002655	0.385338	0	0	0	0	0	0	1	0	0	-2.7300	1.3600	2.7300	-1.3300	0.0000	0.0000	0.0000	0.0000;
	10353	10330	0.000308	0.003491	0.11293	1192.38	0	0	0	0	1	0	0	179.7200	207.9600	-179.4900	-216.8400	0.0000	0.0000	0.0000	0.0000;
	10353	10468	0.000417	0.005958	0.09723	1118.63	0	0	0	0	1	0	0	-127.9900	23.8200	128.0600	-32.8100	0.0000	0.0000	0.0000	0.0000;
	10369	10275	0.000511	0.0058	0.09927	1199.54	0	0	0	0	1	0	0	237.1900	44.3700	-236.9100	-51.4200	0.0000	0.0000	0.0000	0.0000;
	10369	10427	0.014131	0.792418	0	0	0	0	0	0	1	0	0	2.1300	1.0600	-2.1300	-1.0200	0.0000	0.0000	0.0000	0.0000;
	10369	10459	0.025119	0.290702	0	0	0	0	0	0	1	0	0	7.3700	3.7800	-7.3500	-3.5900	0.0000	0.0000	0.0000	0.0000;
	10369	10729	0.099619	1.013165	0	0	0	0	0	0	1	0	0	4.8700	-2.5600	-4.8400	2.8500	0.0000	0.0000	0.0000	0.0000;
	10369	10794	0.016722	2.057848	0	0	0	0	0	0	1	0	0	-3.7100	-0.9100	3.7100	1.1900	0.0000	0.0000	0.0000	0.0000;
	10369	10893	0.001669	0.020408	0.42951	1319.14	0	0	0	0	1	0	0	-440.9100	-82.0800	444.0800	74.9800	0.0000	0.0000	0.0000	0.0000;
	10369	10917	0.077173	1.209195	0	0	0	0	0	0	1	0	0	-11.6100	0.7900	11.7100	0.7800	0.0000	0.0000	0.0000	0.0000;
	10369	11037	0.003148	0.777201	0	0	0	0	0	0	1	0	0	-4.2700	0.0300	4.2700	0.1000	0.0000	0.0000	0.0000	0.0000;
	10414	10353	0.000511	0.005664	0.15077	1237.11	0	0	0	0	1	0	0	232.3500	200.0800	-231.8800	-210.5600	0.0000	0.0000	0.0000	0.0000;
	10414	10459	0.006143	1.313097	0	0	0	0	0	0	1	0	0	0.2700	1.3900	-0.2700	-1.3700	0.0000	0.0000	0.0000	0.0000;
	10414	10836	0.018374	0.308758	0	0	0	0	0	0	1	0	0	13.2500	-2.6000	-13.2200	3.1300	0.0000	0.0000	0.0000	0.0000;
	10414	10838	0.000651	0.007215	0.16126	1170.38	0	0	0	0	1	0	0	-134.0100	-100.2500	134.1800	84.9300	0.0000	0.0000	0.0000	0.0000;
	10427	10275	0.000276	0.003171	0.07881	1106.35	0	0	0	0	1	0	0	-113.9500	-137.5900	114.0300	130.4200	0.0000	0.0000	0.0000	0.0000;
	10427	10429	0.000277	0.001081	0	0	0	0	0	0	1	0	0	62.1700	12.8200	-62.1600	-12.7700	0.0000	0.0000	0.0000	0.0000;
	10427	10459	2.9e-05	0.069464	0	0	0	0	0	0	1	0	0	5.4800	5.7900	-5.4800	-5.7500	0.0000	0.0000	0.0000	0.0000;
	10427	10728	0.000673	0.008765	0.28884	1263.14	0	0	0	0	1	0	0	-311.1600	-39.5400	311.8000	18.0900	0.0000	0.0000	0.0000	0.0000;
	10427	10729	0.07595	1.226917	0	0	0	0	0	0	1	0	0	2.6500	-2.6200	-2.6300	2.7800	0.0000	0.0000	0.0000	0.0000;
	10432	10462	0.000596	0.007225	0.20622	1372.69	0	0	0	0	1	0	0	481.6200	101.8700	-480.2600	-107.0800	0.0000	0.0000	0.0000	0.0000;
	10432	10462	0.024948	0.466373	0	0	0	0	0	0	1	0	0	7.4200	1.9700	-7.4100	-1.7100	0.0000	0.0000	0.0000	0.0000;
	10432	10701	0.002754	0.036539	0.6771	1337.31	0	0	0	0	1	0	0	-433.4700	12.0500	438.3800	-19.5400	0.0000	0.0000	0.0000	0.0000;
	10432	10735	0.00055	0.006436	0.19102	1263.59	0	0	0	0	1	0	0	-280.5900	-175.5200	281.1300	161.3100	0.0000	0.0000	0.0000	0.0000;
	10432	10836	0.125522	0.851278	0	0	0	0	0	0	1	0	0	7.4700	-0.9100	-7.4000	1.3700	0.0000	0.0000	0.0000	0.0000;
	10432	10966	0.038749	0.30676	0	0	0	0	0	0	1	0	0	-14.6400	5.7800	14.7300	-5.0600	0.0000	0.0000	0.0000	0.0000;
	10459	10333	0.000272	0.003764	0.11459	1110.9	0	0	0	0	1	0	0	93.7000	-60.9300	-93.6700	49.6800	0.0000	0.0000	0.0000	0.0000;
	10459	10462	0.019744	0.256979	0	0	0	0	0	0	1	0	0	2.5100	-5.5100	-2.5100	5.6100	0.0000	0.0000	0.0000	0.0000;
	10459	10697	0.023597	0.610561	0	0	0	0	0	0	1	0	0	-29.7800	-1.1400	29.9900	6.4700	0.0000	0.0000	0.0000	0.0000;
	10459	10708	0.048691	1.158479	0	0	0	0	0	0	1	0	0	-18.5200	0.2100	18.6800	3.7000	0.0000	0.0000	0.0000	0.0000;
	10459	10728	0.000884	0.011376	0.23272	1226.5	0	0	0	0	1	0	0	-274.8300	-62.0100	275.5100	46.8400	0.0000	0.0000	0.0000	0.0000;
	10459	10729	0.026095	0.272569	0	0	0	0	0	0	1	0	0	9.8600	-13.4600	-9.7900	14.2000	0.0000	0.0000	0.0000	0.0000;
	10459	10893	0.001652	0.023343	0.74282	1337.32	0	0	0	0	1	0	0	-472.5300	-132.1900	476.3000	107.1100	0.0000	0.0000	0.0000	0.0000;
	10459	11075	0.00344	0.04602	1.64956	1472.07	0	0	0	0	1	0	0	-589.6900	-34.4900	601.5200	19.1600	0.0000	0.0000	0.0000	0.0000;
	10462	10468	0.000602	0.006787	0.23886	1062.79	0	0	0	0	1	0	0	-86.7600	137.6300	86.9300	-160.4300	0.0000	0.0000	0.0000	0.0000;
	10462	10708	0.053321	0.741967	0	0	0	0	0	0	1	0	0	-30.1000	3.3500	30.5600	3.1600	0.0000	0.0000	0.0000	0.0000;
	10462	10729	0.026464	0.363879	0	0	0	0	0	0	1	0	0	5.8700	-6.1600	-5.8500	6.4200	0.0000	0.0000	0.0000	0.0000;
	10462	10802	0.00115	0.556526	0	0	0	0	0	0	1	0	0	3.4300	-3.2100	-3.4300	3.3300	0.0000	0.0000	0.0000	0.0000;
	10462	10803	0.00115	0.556526	0	0	0	0	0	0	1	0	0	2.6700	-3.2200	-2.6700	3.3200	0.0000	0.0000	0.0000	0.0000;
	10462	10836	0.029459	0.245458	0	0	0	0	0	0	1	0	0	11.5400	-5.5900	-11.5000	5.9700	0.0000	0.0000	0.0000	0.0000;
	10462	10843	0.141017	2.241293	0	0	0	0	0	0	1	0	0	-0.5900	-0.4600	0.5900	0.4700	0.0000	0.0000	0.0000	0.0000;
	10468	10330	0.00056	0.006153	0.11822	1204.83	0	0	0	0	1	0	0	224.4600	86.0400	-224.1300	-94.5700	0.0000	0.0000	0.0000	0.0000;
	10468	10459	0.000589	0.007062	0.11102	1031.53	0	0	0	0	1	0	0	-5.9600	54.3000	5.9800	-65.4000	0.0000	0.0000	0.0000	0.0000;
	10468	10708	0.002939	0.032966	1.42932	1533.44	0	0	0	0	1	0	0	-651.4700	-22.2200	663.7000	9.0300	0.0000	0.0000	0.0000	0.0000;
	10534	10681	0.001145	0.013347	0.3985	1167.28	0	0	0	0	1	0	0	-194.2100	-89.2800	194.6700	51.9900	0.0000	0.0000	0.0000	0.0000;
	10534	10906	0.024119	0.601395	0	0	0	0	0	0	1	0	0	-4.9000	-2.0200	4.9100	2.1800	0.0000	0.0000	0.0000	0.0000;
	10534	10966	0.006527	0.661948	0	0	0	0	0	0	1	0	0	21.2400	2.2400	-21.2100	0.6100	0.0000	0.0000	0.0000	0.0000;
	10586	10588	0.000266	0.001027	0	0	0	0	0	0	1	0	0	48.4400	13.2900	-48.4300	-13.2700	0.0000	0.0000	0.0000	0.0000;
	10586	10681	0.02987	0.34006	0	0	0	0	0	0	1	0	0	2.2600	-2.1300	-2.2600	2.1600	0.0000	0.0000	0.0000	0.0000;
	10586	10809	0.012313	0.696874	0	0	0	0	0	0	1	0	0	-7.2300	-0.1400	7.2300	0.4800	0.0000	0.0000	0.0000	0.0000;
	10586	10899	0.001233	0.01483	0.19006	1161.1	0	0	0	0	1	0	0	-153.4500	-32.7800	153.7300	15.7100	0.0000	0.0000	0.0000	0.0000;
	10586	10942	0.014395	0.882291	0	0	0	0	0	0	1	0	0	-10.2400	0.3900	10.2500	0.4800	0.0000	0.0000	0.0000	0.0000;
	10586	10979	0.035287	0.819134	0	0	0	0	0	0	1	0	0	2.5400	-1.2800	-2.5400	1.3500	0.0000	0.0000	0.0000	0.0000;
	10586	11062	0.258981	1.559981	0	0	0	0	0	0	1	0	0	-0.1700	1.0300	0.1700	-1.0100	0.0000	0.0000	0.0000	0.0000;
	10661	10663	0.000242	0.001083	0	0	0	0	0	0	1	0	0	-252.6100	-113.0300	252.7900	113.8500	0.0000	0.0000	0.0000	0.0000;
	10661	10664	0.000217	0.001042	0	0	0	0	0	0	1	0	0	0.0000	0.0000	0.0000	-0.0000	0.0000	0.0000	0.0000	0.0000;
	10661	10778	0.0018	0.070822	0	0	0	0	0	0	1	0	0	119.3300	-29.5500	-119.0600	40.2000	0.0000	0.0000	0.0000	0.0000;
	10661	74240	0.016022	0.242648	0	0	0	0	0	0	1	0	0	16.9500	-6.4400	-16.8900	7.2300	0.0000	0.0000	0.0000	0.0000;
	10663	74234	0.002796	0.038534	0.7293	1220.24	0	0	0	0	1	0	0	-206.8000	-67.9500	208.0100	9.5600	0.0000	0.0000	0.0000	0.0000;
	10680	10684	0.00011	0.009473	0	1371.62	0	0	1.03125	0	1	0	0	-85.2800	-60.1500	85.2900	61.1600	0.0000	0.0000	0.0000	0.0000;
	10680	10685	0.000114	0.009549	0	1369.65	0	0	1.03125	0	1	0	0	-138.6200	-59.0400	138.6500	61.1600	0.0000	0.0000	0.0000	0.0000;
	10680	10687	9.4e-05	0.007209	0	1369.41	0	0	1.03125	0	1	0	0	-120.6100	-59.8800	120.6300	61.1600	0.0000	0.0000	0.0000	0.0000;
	10680	10688	0.000144	0.010392	0	1368.2	0	0	1.03125	0	1	0	0	-109.9100	-59.5700	109.9300	61.1600	0.0000	0.0000	0.0000	0.0000;
	10680	10812	0.000109	0.003064	1.70908	4069.09	0	0	0	0	1	0	0	-877.9900	126.4100	878.8100	-288.3500	0.0000	0.0000	0.0000	0.0000;
	10680	10905	6.3e-05	0.001807	0.77514	3916.79	0	0	0	0	1	0	0	155.2700	54.0700	-155.2500	-137.7100	0.0000	0.0000	0.0000	0.0000;
	10681	10680	0.000117	0.008837	0	1409.3	0	0	1	0	1	0	0	-288.4300	-27.8400	288.5200	34.7000	0.0000	0.0000	0.0000	0.0000;
	10681	10689	0.000751	0.047881	0	246.76	0	0	1.04375	0	1	0	0	-9.0100	-4.9000	9.0200	4.9500	0.0000	0.0000	0.0000	0.0000;
	10681	10906	0.268187	2.390316	0	0	0	0	0	0	1	0	0	-0.1700	-0.0700	0.1700	0.0700	0.0000	0.0000	0.0000	0.0000;
	10681	10915	0.000744	0.008155	0.2455	1037.07	0	0	0	0	1	0	0	-18.0700	-35.6700	18.0800	9.1300	0.0000	0.0000	0.0000	0.0000;
	10681	10966	0.157059	2.0812	0	0	0	0	0	0	1	0	0	8.0800	0.9200	-7.9800	0.3500	0.0000	0.0000	0.0000	0.0000;
	10681	10979	0.043376	1.001809	0	0	0	0	0	0	1	0	0	1.2800	-0.3700	-1.2800	0.3900	0.0000	0.0000	0.0000	0.0000;
	10691	10933	0.294602	1.610546	0	0	0	0	0	0	1	0	0	10.6700	-5.2300	-10.2200	7.7000	0.0000	0.0000	0.0000	0.0000;
	10691	10983	0.004186	0.62371	0	0	0	0	0	0	1	0	0	25.5100	-9.1300	-25.4800	14.1100	0.0000	0.0000	0.0000	0.0000;
	10691	13616	0.083884	1.347328	0	0	0	0	0	0	1	0	0	10.8100	-5.0600	-10.6800	7.1400	0.0000	0.0000	0.0000	0.0000;
	10694	10843	0.179857	0.850277	0	0	0	0	0	0	1	0	0	8.5200	0.3000	-8.4000	0.2700	0.0000	0.0000	0.0000	0.0000;
	10694	10862	0.013062	0.260418	0	0	0	0	0	0	1	0	0	1.2400	2.9500	-1.2300	-2.9300	0.0000	0.0000	0.0000	0.0000;
	10695	10843	0.179857	0.850277	0	0	0	0	0	0	1	0	0	9.0600	0.2200	-8.9200	0.4100	0.0000	0.0000	0.0000	0.0000;
	10695	10862	0.013062	0.260418	0	0	0	0	0	0	1	0	0	3.0700	2.8800	-3.0700	-2.8400	0.0000	0.0000	0.0000	0.0000;
	10697	10699	0.000728	0.041443	0	420.33	0	0	1.03125	0	1	0	0	-79.3700	17.1900	79.4200	-14.5000	0.0000	0.0000	0.0000	0.0000;
	10697	10700	0.000238	0.001008	0	0	0	0	0	0	1	0	0	1.1900	0.4500	-1.1900	-0.4500	0.0000	0.0000	0.0000	0.0000;
	10697	10701	0.000208	0.001102	0	0	0	0	0	0	1	0	0	-31.4800	-15.6500	31.4800	15.6600	0.0000	0.0000	0.0000	0.0000;
	10697	10729	0.148038	2.318231	0	0	0	0	0	0	1	0	0	9.4300	0.1500	-9.3100	1.7600	0.0000	0.0000	0.0000	0.0000;
	10701	10718	0.001483	0.018455	0.35262	1199.55	0	0	0	0	1	0	0	-221.8000	14.3600	222.5000	-43.7400	0.0000	0.0000	0.0000	0.0000;
	10701	10979	0.001496	0.017808	0.20963	1197.59	0	0	0	0	1	0	0	-248.0600	-10.4800	248.9200	-2.0800	0.0000	0.0000	0.0000	0.0000;
	10703	10933	0.070626	0.444377	0	0	0	0	0	0	1	0	0	28.5900	3.5600	-28.0700	-0.2800	0.0000	0.0000	0.0000	0.0000;
	10703	11001	0.002613	0.195125	0	0	0	0	0	0	1	0	0	66.4400	8.5600	-66.3300	-0.7700	0.0000	0.0000	0.0000	0.0000;
	10707	10710	0.000128	0.01077	0	1518.59	0	0	1.01875	0	1	0	0	-171.1200	13.7200	171.1600	-10.6100	0.0000	0.0000	0.0000	0.0000;
	10707	10711	9.8e-05	0.007513	0	1517.03	0	0	1.01875	0	1	0	0	-189.6400	13.2800	189.6700	-10.6100	0.0000	0.0000	0.0000	0.0000;
	10707	10712	0.000131	0.009968	0	1515.27	0	0	1.01875	0	1	0	0	-135.9300	12.4300	135.9500	-10.6100	0.0000	0.0000	0.0000	0.0000;
	10707	10713	8.4e-05	0.006774	0	1513.23	0	0	1.01875	0	1	0	0	-189.3400	13.0000	189.3700	-10.6100	0.0000	0.0000	0.0000	0.0000;
	10707	10715	5e-05	0.003603	0	1505.34	0	0	1.0125	0	1	0	0	-172.4200	11.6600	172.4300	-10.6100	0.0000	0.0000	0.0000	0.0000;
	10707	10716	0.00028	0.001189	0	0	0	0	0	0	1	0	0	334.8100	-457.2400	-333.9600	460.8500	0.0000	0.0000	0.0000	0.0000;
	10708	10707	0.000122	0.00891	0	1500.23	0	0	1.0125	0	1	0	0	-523.3200	-26.9200	523.6300	50.2100	0.0000	0.0000	0.0000	0.0000;
	10708	10729	0.072138	0.739791	0	0	0	0	0	0	1	0	0	34.1100	-0.0800	-33.3300	8.0800	0.0000	0.0000	0.0000	0.0000;
	10708	10802	0.007764	0.940974	0	0	0	0	0	0	1	0	0	26.3700	2.5600	-26.3100	3.5700	0.0000	0.0000	0.0000	0.0000;
	10708	10803	0.007764	0.940974	0	0	0	0	0	0	1	0	0	25.9200	2.4600	-25.8700	3.4600	0.0000	0.0000	0.0000	0.0000;
	10708	10867	0.112976	2.468416	0	0	0	0	0	0	1	0	0	5.6800	2.1100	-5.6400	-1.2600	0.0000	0.0000	0.0000	0.0000;
	10716	10717	7.1e-05	0.001952	0.82174	4009.72	0	0	0	0	1	0	0	301.8800	-60.0000	-301.8200	-26.0700	0.0000	0.0000	0.0000	0.0000;
	10716	10734	0.000421	0.011339	5.17633	4230.58	0	0	0	0	1	0	0	1475.7400	-167.1300	-1467.1000	-150.0800	0.0000	0.0000	0.0000	0.0000;
	10716	11011	0.000242	0.006647	4.30227	4243.33	0	0	0	0	1	0	0	-1443.8300	-233.7400	1448.5500	-99.2100	0.0000	0.0000	0.0000	0.0000;
	10717	10723	0.000115	0.009029	0	1223.22	0	0	1.0375	0	1	0	0	-82.2400	-39.5200	82.2500	40.2800	0.0000	0.0000	0.0000	0.0000;
	10717	10724	0.000153	0.011674	0	1221.95	0	0	1.0375	0	1	0	0	-104.8800	-38.8100	104.9000	40.2800	0.0000	0.0000	0.0000	0.0000;
	10717	10725	0.000201	0.013611	0	1216.91	0	0	1.0375	0	1	0	0	-71.2800	-39.3700	71.2900	40.2800	0.0000	0.0000	0.0000	0.0000;
	10717	10726	0.00019	0.014406	0	1216.82	0	0	1.0375	0	1	0	0	-71.0700	-39.3200	71.0800	40.2800	0.0000	0.0000	0.0000	0.0000;
	10717	10861	0.000506	0.013992	7.90759	4141.28	0	0	0	0	1	0	0	1021.0200	-448.1400	-1016.0800	-265.8600	0.0000	0.0000	0.0000	0.0000;
...